19
Iteration:  1833charge 0 multiplicity 1
 O        -2.929808        -1.211893         1.610485
 C        -1.753569        -1.305019         0.891569
 C        -1.632301        -2.519563        -0.001762
 C        -1.678547        -1.155546        -0.612107
 O        -0.527980        -0.545968        -1.030406
 C         0.296993        -0.476329         0.083422
 C         1.506996         0.407876        -0.073131
 C         1.574517        -1.113771        -0.059759
 C        -0.535479        -0.508589         1.334944
 H        -2.976972        -1.993481         2.190241
 H        -0.672275        -3.072389        -0.221724
 H        -2.621163        -2.961673        -0.245278
 H        -2.530488        -0.859054        -1.324568
 H         1.572443         1.127537        -0.835124
 H         1.759530         0.958197         0.878128
 H         1.527295        -1.711419        -0.953007
 H         1.892400        -1.545413         0.887254
 H         0.059717        -0.896242         2.175914
 H        -0.840492         0.539368         1.710157
