19
Iteration:   113charge 0 multiplicity 1
 O        -2.898236        -1.208001         1.649993
 C        -1.813697        -1.296985         0.808578
 C        -1.496013        -2.593275         0.085316
 C        -1.628722        -1.202503        -0.621378
 O        -0.614451        -0.412781        -1.057764
 C         0.269431        -0.420245         0.116615
 C         1.472287         0.394890        -0.267214
 C         1.631445        -1.085324         0.012915
 C        -0.638747        -0.559509         1.381979
 H        -2.789205        -1.979615         2.222259
 H        -0.520811        -3.056600         0.475710
 H        -2.413845        -3.296304        -0.238657
 H        -2.585386        -1.181877        -1.163722
 H         1.572104         0.824326        -1.272718
 H         2.003895         1.084827         0.407403
 H         1.756411        -1.903805        -0.810737
 H         2.004824        -1.327349         1.015323
 H        -0.117751        -1.014506         2.329993
 H        -1.075836         0.356826         1.656750
