19
Iteration:  1748
 O        -2.903168        -1.183941         1.504749
 C        -1.763809        -1.318044         0.850922
 C        -1.381736        -2.503524         0.067760
 C        -1.721566        -1.194833        -0.602220
 O        -0.637265        -0.448137        -1.085824
 C         0.255470        -0.373750         0.148155
 C         1.582071         0.339548         0.016327
 C         1.444359        -1.216103        -0.178620
 C        -0.597335        -0.492901         1.424001
 H        -2.856049        -1.658005         2.342042
 H        -0.416283        -2.998614         0.032091
 H        -2.118384        -3.250308         0.234997
 H        -2.700375        -0.990985        -1.204279
 H         1.727737         0.924161        -0.876497
 H         2.122631         0.520828         0.934057
 H         1.427834        -1.767636        -1.143813
 H         2.054010        -1.621966         0.610328
 H        -0.134551        -0.967120         2.255406
 H        -1.087607         0.455049         1.691633
