19
Iteration:  1887charge 0 multiplicity 1
 O        -2.995081        -0.970108         1.563976
 C        -1.746454        -1.316865         0.850484
 C        -1.639365        -2.582977         0.019938
 C        -1.697221        -1.205777        -0.602294
 O        -0.549524        -0.497425        -1.086318
 C         0.300569        -0.507624         0.062013
 C         1.333879         0.456887         0.036603
 C         1.702528        -1.039963        -0.123933
 C        -0.415353        -0.824285         1.390488
 H        -2.992419        -1.450120         2.396913
 H        -0.713869        -3.186878         0.155110
 H        -2.542993        -3.225316         0.025293
 H        -2.546279        -0.954133        -1.263711
 H         1.274234         1.099113        -0.777208
 H         1.675411         0.995732         0.961032
 H         2.013804        -1.260439        -1.089888
 H         2.088269        -1.554832         0.789549
 H         0.193523        -1.500111         2.000182
 H        -0.616266         0.180552         1.854890
