19
Iteration:  4197charge 0 multiplicity 1
 O        -2.953976        -0.974183         1.698864
 C        -1.839951        -1.340444         0.851007
 C        -1.834352        -2.589314        -0.051986
 C        -1.826602        -1.118968        -0.657954
 O        -0.439020        -0.798701        -1.143688
 C         0.380155        -0.548358         0.079064
 C         1.374458         0.593172         0.039245
 C         1.815922        -0.944390         0.000064
 C        -0.456868        -0.753460         1.289115
 H        -2.825520        -1.406130         2.538392
 H        -0.801523        -2.917992        -0.172436
 H        -2.562866        -3.319371        -0.344401
 H        -2.545200        -0.558481        -1.260529
 H         1.440370         1.100191        -0.829716
 H         1.376058         1.282824         0.936994
 H         2.415792        -1.322333        -0.859534
 H         2.393334        -1.406267         0.922862
 H        -0.014982        -1.426742         2.046035
 H        -0.757691         0.165447         1.853824
