19
Iteration:  2368
 O        -2.963105        -0.978118         1.522108
 C        -1.778788        -1.286576         0.865874
 C        -1.955501        -2.551262         0.062317
 C        -1.784790        -1.191394        -0.676345
 O        -0.479141        -0.758808        -1.042450
 C         0.389129        -0.520277         0.059084
 C         1.366710         0.631500         0.094129
 C         1.787214        -0.844732        -0.130675
 C        -0.279500        -0.889583         1.377056
 H        -3.120281        -1.494413         2.336452
 H        -1.213860        -3.371422        -0.152822
 H        -2.926335        -3.011380        -0.162359
 H        -2.514589        -0.787128        -1.250122
 H         1.377709         1.262081        -0.821549
 H         1.494709         1.062187         1.120324
 H         2.134397        -1.394516        -1.037445
 H         2.236531        -1.461797         0.750179
 H         0.239025        -1.741111         1.915549
 H        -0.377235        -0.031222         2.106028
