19
Iteration:  3017charge 0 multiplicity 1
 O        -2.946691        -1.346436         1.664615
 C        -1.752378        -1.203871         0.846258
 C        -1.473213        -2.484833        -0.027941
 C        -1.664295        -1.180495        -0.675859
 O        -0.586784        -0.364436        -1.023498
 C         0.291496        -0.325572         0.059424
 C         1.580376         0.241638        -0.088546
 C         1.431041        -1.273311         0.020442
 C        -0.625737        -0.410088         1.355369
 H        -2.854060        -2.189329         2.201721
 H        -0.407324        -2.856874        -0.251695
 H        -2.427275        -3.112302        -0.177105
 H        -2.525769        -1.005750        -1.276404
 H         1.714422         0.777556        -1.126659
 H         2.234033         0.645633         0.663128
 H         1.723281        -2.052352        -0.743718
 H         2.048500        -1.487864         0.939105
 H        -0.156548        -0.840204         2.195325
 H        -1.081306         0.551023         1.751548
