19
Iteration:   208charge 0 multiplicity 1
 O        -3.031434        -0.938363         1.609345
 C        -1.813319        -1.361385         0.922988
 C        -1.722947        -2.577817         0.036073
 C        -1.692752        -1.244877        -0.577094
 O        -0.419325        -0.731768        -0.994316
 C         0.318679        -0.510578         0.141038
 C         1.322487         0.594428        -0.141290
 C         1.787594        -0.810105        -0.205279
 C        -0.495953        -0.885508         1.373926
 H        -2.957072        -1.402667         2.481275
 H        -0.818131        -3.240934        -0.006343
 H        -2.692902        -3.150752        -0.192382
 H        -2.455836        -0.914801        -1.298728
 H         1.249294         1.202832        -1.070054
 H         1.896275         1.211655         0.596886
 H         1.898480        -1.360278        -1.212633
 H         2.484916        -1.051287         0.560680
 H         0.150684        -1.575146         1.947325
 H        -0.805706        -0.037439         2.053885
