19
Iteration:   172charge 0 multiplicity 1
 O        -2.928088        -1.034148         1.580735
 C        -1.774924        -1.324224         0.887460
 C        -1.737488        -2.642407         0.222101
 C        -1.752840        -1.266533        -0.604038
 O        -0.536386        -0.647165        -1.047970
 C         0.351708        -0.519312         0.039220
 C         1.393583         0.530242         0.091801
 C         1.797670        -0.854075        -0.245573
 C        -0.500655        -0.698480         1.243965
 H        -3.488041        -1.822503         1.830095
 H        -0.916463        -3.224075         0.081124
 H        -2.613721        -3.132632         0.262097
 H        -2.639627        -1.011326        -1.185702
 H         1.438517         1.242859        -0.730916
 H         1.766311         0.723338         1.076645
 H         1.960521        -1.059314        -1.217346
 H         2.540175        -1.323388         0.468377
 H         0.087147        -1.118227         1.961296
 H        -0.840183         0.333090         1.612263
