19
Iteration:   723charge 0 multiplicity 1
 O        -2.974811        -0.981495         1.712214
 C        -1.817127        -1.341144         0.906618
 C        -1.770037        -2.543210        -0.023155
 C        -1.777985        -1.161876        -0.601154
 O        -0.401313        -0.724801        -1.050097
 C         0.382264        -0.609306         0.105079
 C         1.300728         0.574796        -0.076990
 C         1.859619        -0.800787        -0.179668
 C        -0.500302        -0.857418         1.403394
 H        -3.565322        -1.734382         1.706225
 H        -0.832115        -3.177432        -0.091473
 H        -2.556080        -3.206658        -0.280793
 H        -2.639631        -0.863548        -1.264187
 H         1.148122         1.244417        -0.923796
 H         1.594610         1.030303         0.749997
 H         2.133220        -1.286599        -1.148214
 H         2.582411        -1.080219         0.542095
 H        -0.019970        -1.453333         2.112394
 H        -0.762658         0.104726         1.903699
