19
Iteration:  1129
 O        -2.900335        -0.788193         1.614174
 C        -1.792830        -1.413554         0.909593
 C        -2.055021        -2.524712        -0.035820
 C        -1.665049        -1.120434        -0.574922
 O        -0.388205        -1.059235        -1.003269
 C         0.360948        -0.561254         0.093385
 C         1.145183         0.733193        -0.025596
 C         1.897281        -0.603359        -0.142900
 C        -0.266346        -1.125647         1.360574
 H        -3.499949        -1.484059         1.873935
 H        -1.417231        -3.317382        -0.281719
 H        -3.051473        -2.885638        -0.212760
 H        -2.376581        -0.470438        -1.056329
 H         1.019683         1.316612        -0.981162
 H         1.136842         1.409884         0.917542
 H         2.160642        -0.823100        -1.186554
 H         2.676231        -0.947938         0.620643
 H         0.237938        -2.058262         1.731876
 H        -0.562296        -0.389978         2.095322
