19
Iteration:  2250
 O        -2.987251        -1.035871         1.596612
 C        -1.840408        -1.396195         0.870322
 C        -1.581503        -2.592600        -0.020447
 C        -1.806861        -1.132703        -0.609529
 O        -0.583492        -0.495282        -1.073593
 C         0.361112        -0.500337         0.160306
 C         1.511036         0.413123         0.046037
 C         1.773538        -1.067004        -0.227594
 C        -0.593991        -0.686060         1.412904
 H        -2.867134        -1.458103         2.445692
 H        -0.530429        -2.927257         0.133563
 H        -2.378513        -3.379866        -0.127413
 H        -2.575384        -1.022270        -1.239571
 H         1.521172         1.071007        -0.932178
 H         1.875422         0.740483         1.006501
 H         1.904771        -1.617554        -1.218565
 H         2.631040        -1.415182         0.405398
 H        -0.169893        -0.926030         2.313308
 H        -0.976130         0.387199         1.560873
