19
Iteration:   624
 O        -3.031615        -1.235507         1.610027
 C        -1.852615        -1.308990         0.869823
 C        -1.602753        -2.554041         0.118199
 C        -1.719624        -1.139129        -0.617346
 O        -0.510819        -0.521734        -1.069624
 C         0.314292        -0.469468         0.138357
 C         1.500678         0.460490        -0.047195
 C         1.730380        -1.076455        -0.236782
 C        -0.538823        -0.571786         1.394017
 H        -2.989858        -1.565949         2.510628
 H        -0.693247        -3.203447         0.086349
 H        -2.470935        -3.254808        -0.106708
 H        -2.589793        -0.945661        -1.234957
 H         1.354825         0.943597        -0.935844
 H         1.969205         0.957130         0.761725
 H         1.833964        -1.385689        -1.244899
 H         2.281856        -1.631599         0.608619
 H        -0.137689        -1.020507         2.259943
 H        -0.675383         0.544748         1.520852
