19
Iteration:  2643charge 0 multiplicity 1
 O        -2.975143        -1.279584         1.526680
 C        -1.711866        -1.284885         0.870774
 C        -1.406319        -2.515749        -0.053905
 C        -1.778946        -1.071242        -0.529058
 O        -0.654086        -0.458488        -1.084258
 C         0.262258        -0.381817         0.155620
 C         1.616102         0.270099        -0.109013
 C         1.544816        -1.255369        -0.038797
 C        -0.568988        -0.388827         1.430425
 H        -3.006886        -2.072507         2.117695
 H        -0.414341        -2.841505        -0.154876
 H        -2.213096        -3.252117        -0.097636
 H        -2.831500        -0.926295        -1.021955
 H         1.778313         0.668543        -1.035862
 H         2.131105         0.892710         0.728889
 H         1.659303        -1.711147        -0.974332
 H         1.881963        -1.631420         0.932107
 H        -0.151257        -0.940407         2.268691
 H        -1.068659         0.571261         1.743562
