19
Iteration:   643charge 0 multiplicity 1
 O        -3.025700        -1.092733         1.635869
 C        -1.770973        -1.254924         0.881120
 C        -1.557489        -2.514855         0.011487
 C        -1.726650        -1.253556        -0.670745
 O        -0.583236        -0.559854        -0.977035
 C         0.320095        -0.605120         0.103085
 C         1.377394         0.441058        -0.000122
 C         1.794722        -0.990587        -0.232299
 C        -0.549336        -0.647578         1.350578
 H        -2.638664        -1.060482         2.506415
 H        -0.569655        -3.011038        -0.072081
 H        -2.362678        -3.360595        -0.025251
 H        -2.487199        -1.035921        -1.404895
 H         1.360230         1.139033        -0.834034
 H         1.575049         0.627662         1.120400
 H         1.745241        -1.307992        -1.324688
 H         2.426837        -1.382875         0.639839
 H        -0.001631        -1.197801         2.117510
 H        -0.779016         0.346862         1.719453
