19
Iteration:  3848
 O        -2.935647        -1.040131         1.678885
 C        -1.747563        -1.375055         0.859337
 C        -1.802021        -2.641296        -0.084459
 C        -1.777541        -1.180331        -0.580132
 O        -0.549532        -0.665355        -1.082688
 C         0.359813        -0.403148         0.112500
 C         1.570280         0.570710        -0.053596
 C         1.744613        -0.959431         0.031785
 C        -0.534722        -0.731999         1.284635
 H        -3.459714        -1.856384         1.942197
 H        -0.903522        -3.263892        -0.213473
 H        -2.851212        -3.030310        -0.216589
 H        -2.665381        -0.826357        -1.244179
 H         1.750404         0.909580        -1.026908
 H         2.074377         1.257418         0.665309
 H         2.082659        -1.537186        -0.895222
 H         1.947605        -1.213166         1.090455
 H         0.083823        -1.279926         2.021484
 H        -0.862366         0.185436         1.800931
