19
Iteration:  3947charge 0 multiplicity 1
 O        -2.913451        -1.164329         1.431695
 C        -1.698046        -1.352900         0.806964
 C        -1.414121        -2.620547         0.148346
 C        -1.632631        -1.262050        -0.647451
 O        -0.672949        -0.307405        -0.987068
 C         0.208016        -0.282326         0.098127
 C         1.554500         0.336962        -0.016475
 C         1.382876        -1.301048        -0.096316
 C        -0.505063        -0.478119         1.398095
 H        -3.137865        -1.560699         2.285828
 H        -0.374433        -3.021082         0.224951
 H        -2.264109        -3.289959         0.103421
 H        -2.621268        -1.137916        -1.314445
 H         1.948815         0.900677        -0.876882
 H         2.054567         0.540817         0.872290
 H         1.280826        -1.565638        -1.121775
 H         1.871130        -1.926056         0.751600
 H         0.186765        -0.819934         2.229313
 H        -1.126186         0.368217         1.731162
