19
Iteration:  3392charge 0 multiplicity 1
 O        -2.755204        -0.642536         1.603164
 C        -1.799361        -1.378280         0.798799
 C        -2.039838        -2.589951        -0.061523
 C        -1.617900        -1.176541        -0.636644
 O        -0.359075        -1.067811        -1.063705
 C         0.340344        -0.679205         0.078139
 C         1.080230         0.729630         0.179815
 C         1.839924        -0.573807        -0.148349
 C        -0.386452        -1.173214         1.382430
 H        -3.429866        -1.207289         1.941907
 H        -1.435425        -3.534575        -0.091360
 H        -3.159529        -2.707410         0.020520
 H        -2.344699        -0.689163        -1.230637
 H         0.873964         1.489366        -0.647018
 H         1.343926         1.289972         1.114626
 H         2.151452        -0.305241        -1.251113
 H         2.397909        -0.871266         0.711955
 H        -0.032691        -2.114710         1.783092
 H        -0.338106        -0.487641         2.203368
