19
Iteration:  1255
 O        -2.718618        -0.647640         1.633050
 C        -1.793987        -1.348107         0.892120
 C        -2.274968        -2.517140        -0.055645
 C        -1.653730        -1.255571        -0.669729
 O        -0.315123        -1.093426        -1.019561
 C         0.516692        -0.699976         0.149911
 C         0.932783         0.781449         0.009103
 C         1.974836        -0.363556        -0.151897
 C        -0.342003        -1.356281         1.382628
 H        -3.465720        -1.195305         1.938303
 H        -1.718562        -3.478454        -0.205013
 H        -3.444506        -2.685340        -0.153975
 H        -2.461803        -0.777681        -1.267520
 H         0.569043         1.312720        -0.815829
 H         0.928672         1.318876         0.910597
 H         2.438510        -0.525933        -1.110409
 H         2.712314        -0.626843         0.661871
 H         0.154997        -2.267906         1.549174
 H        -0.281308        -0.703824         2.304105
