19
Iteration:  3578charge 0 multiplicity 1
 O        -2.727946        -0.592135         1.616525
 C        -1.746895        -1.394610         0.858367
 C        -2.154876        -2.614315        -0.019058
 C        -1.717937        -1.329165        -0.679267
 O        -0.373785        -0.970707        -1.076887
 C         0.393926        -0.652367         0.082174
 C         1.011865         0.743235         0.206935
 C         1.875833        -0.542813        -0.027703
 C        -0.285928        -1.183821         1.194801
 H        -3.296381        -1.254183         1.971616
 H        -1.412559        -3.353199        -0.341016
 H        -3.225176        -2.743332        -0.092573
 H        -2.512487        -0.873022        -1.235305
 H         1.029890         1.234350        -0.716317
 H         0.930785         1.274934         1.128465
 H         2.326625        -0.632305        -0.956434
 H         2.536306        -1.016133         0.805991
 H         0.183910        -2.074636         1.729740
 H        -0.245054        -0.463079         1.977340
