19
Iteration:  3045
 O        -3.006019        -1.200079         1.598846
 C        -1.729167        -1.373789         0.849800
 C        -1.440044        -2.578360         0.053634
 C        -1.725353        -1.160175        -0.657018
 O        -0.550891        -0.333615        -0.970112
 C         0.293951        -0.391475         0.129791
 C         1.595272         0.305578        -0.065128
 C         1.519067        -1.229726        -0.102861
 C        -0.626991        -0.474416         1.330793
 H        -3.262528        -1.845881         2.289980
 H        -0.482421        -2.935912        -0.109328
 H        -2.240795        -3.278659         0.063303
 H        -2.540997        -0.913634        -1.326166
 H         1.592679         0.807050        -1.045403
 H         2.135205         0.744796         0.729190
 H         1.479032        -1.583701        -1.140469
 H         2.054588        -1.891232         0.541846
 H        -0.138539        -0.790906         2.323967
 H        -1.141250         0.472857         1.450712
