19
Iteration:  3967charge 0 multiplicity 1
 O        -2.988704        -1.157498         1.490454
 C        -1.726255        -1.348572         0.863608
 C        -1.342888        -2.599374         0.096805
 C        -1.627346        -1.170872        -0.586465
 O        -0.632678        -0.298987        -1.005710
 C         0.215522        -0.440745         0.101337
 C         1.582416         0.237957        -0.064979
 C         1.481872        -1.211306        -0.126841
 C        -0.615259        -0.430275         1.382663
 H        -3.208726        -1.959591         1.950314
 H        -0.294119        -2.966156         0.193446
 H        -2.189976        -3.281053         0.005062
 H        -2.693234        -1.269755        -1.033751
 H         1.598295         0.819940        -0.950316
 H         2.054383         0.792581         0.737938
 H         1.598825        -1.685966        -1.071229
 H         1.804105        -1.806350         0.787653
 H        -0.230340        -0.962788         2.255908
 H        -0.929962         0.603143         1.673466
