19
Iteration:  1239charge 0 multiplicity 1
 O        -2.776691        -0.592621         1.588119
 C        -1.748275        -1.429123         0.830049
 C        -2.255423        -2.571378        -0.058129
 C        -1.735946        -1.280459        -0.648373
 O        -0.297914        -1.110592        -1.042382
 C         0.371686        -0.615379         0.165722
 C         0.991797         0.747952         0.107217
 C         1.866548        -0.407312        -0.104933
 C        -0.166261        -1.273523         1.310227
 H        -3.115283        -1.274639         2.244638
 H        -1.755688        -3.516369        -0.061055
 H        -3.270847        -2.480938        -0.065694
 H        -2.244493        -0.519857        -1.239795
 H         0.726080         1.365452        -0.812439
 H         1.230453         1.426076         1.001645
 H         2.091140        -0.775248        -1.118229
 H         2.719849        -0.493239         0.566347
 H         0.142650        -2.338678         1.583508
 H        -0.020627        -0.788479         2.248166
