19
Iteration:  1658charge 0 multiplicity 1
 O        -2.944773        -0.985929         1.627038
 C        -1.706924        -1.403708         0.906863
 C        -1.748724        -2.535767        -0.065610
 C        -1.754095        -1.098963        -0.562356
 O        -0.457466        -0.752587        -1.103589
 C         0.288725        -0.455790         0.120091
 C         1.372876         0.522216        -0.075063
 C         1.726194        -0.925327        -0.104989
 C        -0.513252        -0.803392         1.382933
 H        -3.023480        -1.517454         2.419536
 H        -0.707238        -2.910276        -0.240845
 H        -2.584483        -3.368261        -0.213897
 H        -2.500742        -0.647339        -1.130776
 H         1.468095         1.175774        -0.943429
 H         1.560125         1.016372         0.900221
 H         1.956892        -1.668913        -0.836966
 H         2.361669        -1.222847         0.793043
 H        -0.007660        -1.378185         2.128540
 H        -0.878760         0.154483         1.824410
