19
Iteration:   342
 O        -2.884766        -0.838564         1.572649
 C        -1.789968        -1.390813         0.908690
 C        -1.876747        -2.736575         0.012219
 C        -1.818059        -1.303247        -0.532023
 O        -0.584539        -0.687877        -1.016247
 C         0.368222        -0.469992         0.113586
 C         1.262364         0.647723        -0.200353
 C         1.923194        -0.788722        -0.031580
 C        -0.308135        -0.936092         1.406752
 H        -3.690429        -1.296434         1.340976
 H        -0.780724        -3.179549        -0.217002
 H        -2.871267        -3.284841        -0.087146
 H        -2.541577        -0.838900        -1.163581
 H         1.161063         1.029078        -1.211192
 H         1.467111         1.318686         0.558192
 H         2.309132        -1.303460        -0.862757
 H         2.480879        -0.998857         0.933448
 H         0.363773        -1.742636         1.881841
 H        -0.333755        -0.135459         2.105220
