19
Iteration:   259
 O        -2.871277        -0.907466         1.676193
 C        -1.778477        -1.400212         0.905225
 C        -1.916627        -2.666245         0.028278
 C        -1.765166        -1.210836        -0.581277
 O        -0.501444        -0.783501        -1.140676
 C         0.395298        -0.563888         0.003085
 C         1.267456         0.673593        -0.054738
 C         1.860615        -0.796093         0.017513
 C        -0.383597        -0.846481         1.258802
 H        -3.200546        -1.622582         2.279240
 H        -1.116398        -3.292786         0.036945
 H        -2.860413        -3.139027        -0.067939
 H        -2.572596        -0.613068        -1.092343
 H         1.295235         1.248178        -1.004553
 H         1.220229         1.312931         0.831209
 H         2.392520        -1.203158        -0.853922
 H         2.235994        -1.096410         0.974161
 H         0.283591        -1.438344         1.820800
 H        -0.676940         0.026832         1.882335
