19
Iteration:  4208charge 0 multiplicity 1
 O        -2.903949        -0.972149         1.612730
 C        -1.834484        -1.359568         0.855672
 C        -1.832813        -2.548357        -0.087849
 C        -1.758744        -1.136061        -0.613614
 O        -0.476813        -0.761395        -1.033473
 C         0.388781        -0.565696         0.049974
 C         1.333685         0.554201        -0.003619
 C         1.851548        -0.919958        -0.020118
 C        -0.501112        -0.742841         1.341325
 H        -2.965703        -1.543995         2.406300
 H        -0.894236        -3.129349        -0.125447
 H        -2.737966        -3.148659        -0.193920
 H        -2.660659        -0.925624        -1.228499
 H         1.540525         1.091975        -0.821271
 H         1.534767         1.015969         1.007982
 H         2.105177        -1.227052        -1.047909
 H         2.167246        -1.396721         1.003464
 H         0.128658        -1.268927         2.073684
 H        -0.700535         0.295914         1.694026
