19
Iteration:   353
 O        -2.826557        -0.855593         1.625512
 C        -1.787186        -1.392058         0.848379
 C        -1.837267        -2.695906         0.035854
 C        -1.722031        -1.283985        -0.597811
 O        -0.591402        -0.681721        -1.005290
 C         0.305302        -0.498997         0.079272
 C         1.360800         0.639979        -0.171978
 C         1.780708        -0.723048        -0.001143
 C        -0.339692        -0.964649         1.367782
 H        -3.692357        -1.244139         1.482479
 H        -1.044135        -3.565328         0.117950
 H        -2.885221        -3.118078        -0.086162
 H        -2.653311        -1.063269        -1.077289
 H         1.231673         0.847356        -1.231112
 H         1.702463         1.473871         0.324165
 H         2.208207        -1.274954        -0.806824
 H         2.191822        -0.966546         1.000475
 H         0.232799        -1.831239         1.837804
 H        -0.539978        -0.221196         2.096913
