19
Iteration:   648
 O        -2.976080        -1.048153         1.624328
 C        -1.820785        -1.281202         0.831247
 C        -1.553141        -2.576654         0.046011
 C        -1.736603        -1.234250        -0.654363
 O        -0.587851        -0.572528        -0.980437
 C         0.277313        -0.547323         0.098144
 C         1.352293         0.418016         0.029057
 C         1.811619        -0.976772        -0.219272
 C        -0.517170        -0.683804         1.351153
 H        -2.715940        -0.962726         2.579847
 H        -0.570374        -3.024795        -0.196257
 H        -2.236662        -3.345529        -0.152877
 H        -2.570544        -1.005089        -1.332724
 H         1.405656         1.161294        -0.782319
 H         1.519742         0.747161         1.002350
 H         1.858899        -1.270398        -1.232601
 H         2.428329        -1.446816         0.520003
 H        -0.045438        -1.321787         2.125720
 H        -0.634870         0.391481         1.685506
