19
Iteration:  1015
 O        -2.859583        -0.739568         1.595471
 C        -1.805003        -1.396110         0.868615
 C        -1.856760        -2.535858         0.063834
 C        -1.688416        -1.196545        -0.597517
 O        -0.424814        -0.817404        -1.130178
 C         0.416077        -0.613884         0.078076
 C         1.106993         0.676235         0.068914
 C         1.833782        -0.674372        -0.193073
 C        -0.390389        -1.183314         1.414629
 H        -3.445749        -1.361749         2.027716
 H        -0.975884        -3.242785         0.213095
 H        -2.866228        -2.839927        -0.238998
 H        -2.507971        -0.991784        -1.377288
 H         0.761303         1.163101        -0.752181
 H         1.384914         0.992758         1.019580
 H         2.013988        -1.013985        -1.143091
 H         2.495144        -0.945005         0.642801
 H         0.015582        -2.100492         1.939259
 H        -0.523112        -0.249812         2.081288
