19
Iteration:  2179
 O        -2.978021        -1.245431         1.636423
 C        -1.812083        -1.346868         0.824654
 C        -1.458500        -2.582657        -0.062626
 C        -1.758375        -1.175825        -0.640745
 O        -0.662415        -0.328640        -0.951102
 C         0.325350        -0.327738         0.121452
 C         1.677981         0.310529        -0.197042
 C         1.539282        -1.220233         0.035452
 C        -0.551467        -0.433286         1.375588
 H        -3.222657        -2.092907         2.007408
 H        -0.490362        -2.993308         0.171000
 H        -2.245696        -3.280879        -0.185267
 H        -2.591960        -1.153744        -1.415232
 H         1.827754         0.585326        -1.200576
 H         2.133040         0.819682         0.615440
 H         1.667991        -1.719689        -0.900947
 H         1.899367        -1.826492         0.785420
 H        -0.057711        -0.885342         2.317444
 H        -1.038075         0.468237         1.665154
