19
Iteration:   965
 O        -2.885573        -0.954575         1.572137
 C        -1.736561        -1.407342         0.916888
 C        -2.099891        -2.531958        -0.001865
 C        -1.710994        -1.208814        -0.597259
 O        -0.388423        -0.938277        -1.142481
 C         0.375113        -0.566408         0.065334
 C         1.230376         0.693327         0.040780
 C         1.859651        -0.625599        -0.110441
 C        -0.363227        -0.951232         1.364603
 H        -3.145265        -1.365891         2.439931
 H        -1.464239        -3.461110        -0.079024
 H        -3.145743        -2.620983        -0.104579
 H        -2.456035        -0.465745        -0.804153
 H         1.181009         1.449711        -0.811701
 H         1.472619         1.016322         1.102523
 H         2.266840        -0.987835        -1.129553
 H         2.517425        -0.833717         0.782169
 H         0.139549        -1.772414         1.861521
 H        -0.442662        -0.099005         2.023855
