19
Iteration:  1410charge 0 multiplicity 1
 O        -2.832969        -0.721383         1.598070
 C        -1.754358        -1.370376         0.803969
 C        -2.082851        -2.619678        -0.002684
 C        -1.784591        -1.192683        -0.640460
 O        -0.379541        -0.982369        -1.052630
 C         0.408818        -0.602608         0.131568
 C         1.089673         0.703034         0.135645
 C         1.944028        -0.620801        -0.156023
 C        -0.360286        -1.088276         1.309700
 H        -3.026344        -1.324385         2.319359
 H        -1.228098        -3.293413        -0.069094
 H        -3.100312        -3.021001         0.035258
 H        -2.339724        -0.560966        -1.271037
 H         0.984861         1.339620        -0.785598
 H         1.199269         1.185446         1.129644
 H         2.248250        -0.742792        -1.254689
 H         2.690661        -0.996158         0.542061
 H         0.109238        -2.071385         1.765609
 H        -0.469773        -0.353147         2.179420
