19
Iteration:   521charge 0 multiplicity 1
 O        -2.922564        -1.451654         1.685502
 C        -1.694520        -1.325178         0.886337
 C        -1.513052        -2.551005         0.181524
 C        -1.748343        -1.128577        -0.652377
 O        -0.611304        -0.475829        -1.055190
 C         0.261292        -0.398179        -0.024039
 C         1.629022         0.337953        -0.022732
 C         1.514207        -1.129895        -0.145268
 C        -0.596536        -0.331415         1.283346
 H        -3.346190        -0.571618         1.587802
 H        -0.587549        -3.092030         0.153780
 H        -2.371489        -3.079612         0.222979
 H        -2.640692        -1.150078        -1.281736
 H         2.170431         1.034745        -0.808293
 H         1.873876         0.666481         1.025588
 H         1.637907        -1.527527        -1.128048
 H         1.940838        -1.725800         0.686461
 H        -0.065469        -0.590207         2.263211
 H        -1.109374         0.589925         1.414757
