19
Iteration:   397charge 0 multiplicity 1
 O        -2.828775        -0.992781         1.791226
 C        -1.821233        -1.272763         0.877907
 C        -1.723472        -2.535691         0.057184
 C        -1.784940        -1.284721        -0.691130
 O        -0.511319        -0.870394        -1.094658
 C         0.367374        -0.616683         0.015862
 C         1.316952         0.635129         0.048069
 C         1.830932        -0.827037        -0.163276
 C        -0.550396        -0.707813         1.320911
 H        -3.620376        -1.431667         1.461122
 H        -0.700136        -3.148269         0.088142
 H        -2.772837        -3.040764         0.025399
 H        -2.563858        -0.930610        -1.376482
 H         1.336711         1.312367        -0.780418
 H         1.435375         1.097946         0.962219
 H         2.245049        -0.950737        -1.214085
 H         2.357395        -1.400130         0.572827
 H        -0.003961        -1.255339         2.168385
 H        -0.702901         0.273131         1.669386
