19
Iteration:  1483
 O        -2.840917        -0.836415         1.677223
 C        -1.782236        -1.358662         0.838181
 C        -1.948418        -2.530243        -0.117952
 C        -1.775911        -1.148938        -0.598718
 O        -0.380069        -0.889092        -1.115375
 C         0.368427        -0.628058         0.135516
 C         1.098687         0.669231        -0.030186
 C         1.891226        -0.755615        -0.036701
 C        -0.313512        -0.989862         1.413442
 H        -3.448018        -1.540340         1.946353
 H        -1.098977        -3.278295        -0.309400
 H        -3.024672        -2.877425        -0.083045
 H        -2.614351        -0.644487        -1.033591
 H         0.989404         1.013332        -1.047316
 H         1.236296         1.204307         0.837766
 H         2.212219        -1.184550        -1.042451
 H         2.455290        -1.032381         0.838615
 H         0.065507        -1.703693         2.062791
 H        -0.497554        -0.036116         1.900166
