19
Iteration:  1613charge 0 multiplicity 1
 O        -2.985619        -0.960038         1.629636
 C        -1.840453        -1.348042         0.851884
 C        -1.927333        -2.601806         0.102242
 C        -1.701627        -1.211524        -0.608490
 O        -0.446691        -0.704188        -1.147980
 C         0.396702        -0.517555         0.061701
 C         1.311869         0.635957         0.009525
 C         1.894539        -0.867691        -0.139610
 C        -0.435360        -0.894855         1.362521
 H        -3.219354        -1.693431         2.203714
 H        -1.115403        -3.350058         0.215463
 H        -3.050626        -2.911409        -0.043099
 H        -2.446821        -0.775510        -1.178530
 H         1.304536         1.428109        -0.714704
 H         1.695273         1.075678         0.954596
 H         2.339064        -1.183332        -1.081451
 H         2.571177        -1.291948         0.682489
 H         0.220717        -1.599503         1.888670
 H        -0.576465         0.004137         1.984404
