19
Iteration:  1645
 O        -2.911464        -1.004113         1.600902
 C        -1.840224        -1.316707         0.824278
 C        -1.791901        -2.575755        -0.037888
 C        -1.775244        -1.095933        -0.626132
 O        -0.494860        -0.775242        -1.030335
 C         0.398908        -0.576435         0.115149
 C         1.301047         0.615431        -0.005394
 C         1.820183        -0.968424        -0.100533
 C        -0.449061        -0.757739         1.370323
 H        -2.898933        -1.672840         2.335482
 H        -0.841252        -3.059791        -0.212572
 H        -2.652664        -3.274603         0.102790
 H        -2.603526        -0.666885        -1.045883
 H         1.214897         1.088261        -0.955580
 H         1.729828         1.216950         0.818084
 H         2.018385        -1.088302        -1.117561
 H         2.383506        -1.351832         0.764911
 H         0.067783        -1.395884         2.127774
 H        -0.695748         0.186601         1.874046
