19
Iteration:  2840
 O        -2.992278        -0.997723         1.698306
 C        -1.783474        -1.284581         0.872997
 C        -1.894737        -2.554850        -0.066771
 C        -1.773692        -1.220048        -0.671038
 O        -0.516948        -0.683715        -0.987648
 C         0.440891        -0.561295         0.002122
 C         1.361454         0.580958        -0.014064
 C         1.859957        -0.943323         0.022118
 C        -0.426127        -0.806453         1.286477
 H        -2.965403        -1.771722         2.324197
 H        -1.074206        -3.213086        -0.227645
 H        -2.713701        -3.079689        -0.436370
 H        -2.596920        -0.776138        -1.380453
 H         1.510893         1.112259        -0.930124
 H         1.468833         1.270183         0.845704
 H         2.208499        -1.276172        -0.909767
 H         2.385575        -1.204888         0.876155
 H         0.180433        -1.445112         1.873514
 H        -0.484979         0.170558         1.719049
