19
Iteration:    46
 O        -2.922193        -1.211961         1.616941
 C        -1.723285        -1.268992         0.884252
 C        -1.305562        -2.568593         0.079568
 C        -1.672243        -1.326281        -0.636865
 O        -0.715481        -0.386721        -1.017870
 C         0.240755        -0.370165         0.007011
 C         1.463546         0.332619        -0.059872
 C         1.489245        -1.196473        -0.094243
 C        -0.547447        -0.390421         1.313679
 H        -2.887600        -1.913436         2.289827
 H        -0.335037        -3.030470         0.303965
 H        -2.209008        -3.286097         0.100255
 H        -2.456525        -1.385234        -1.369390
 H         1.794115         0.859177        -0.974026
 H         1.762011         0.837991         0.863005
 H         1.583128        -1.689296        -0.998700
 H         1.608109        -1.806512         0.875044
 H         0.066212        -0.732284         2.206639
 H        -0.882852         0.603420         1.493808
