19
Iteration:  3756
 O        -2.929774        -0.838062         1.454183
 C        -1.806545        -1.453038         0.886169
 C        -2.018756        -2.645865         0.034736
 C        -1.673772        -1.256220        -0.545746
 O        -0.482718        -0.700392        -1.086722
 C         0.403204        -0.580326         0.144763
 C         1.381194         0.650258         0.056517
 C         1.859480        -0.751784        -0.158801
 C        -0.393850        -0.990366         1.371018
 H        -2.966022        -1.107892         2.382971
 H        -1.252809        -3.452729         0.009908
 H        -2.965036        -3.026166        -0.293959
 H        -2.587211        -0.756797        -1.002887
 H         1.203482         1.339437        -0.794993
 H         1.268664         1.145775         1.072894
 H         1.997231        -1.038823        -1.134175
 H         2.646700        -0.877783         0.648970
 H         0.170440        -1.700578         1.998232
 H        -0.734933        -0.174816         2.063155
