19
Iteration:    98charge 0 multiplicity 1
 O        -3.067798        -1.341533         1.632215
 C        -1.766601        -1.336170         0.927937
 C        -1.494596        -2.566384         0.087477
 C        -1.724350        -1.264010        -0.663354
 O        -0.557861        -0.388413        -0.988113
 C         0.328223        -0.350218         0.124801
 C         1.549619         0.357141        -0.266289
 C         1.610739        -1.138252        -0.031605
 C        -0.569331        -0.371369         1.344499
 H        -3.024743        -1.960478         2.367006
 H        -0.608782        -3.108760        -0.083448
 H        -2.340460        -3.197232         0.077433
 H        -2.473652        -1.060732        -1.414684
 H         1.390488         0.550507        -1.340331
 H         2.021577         1.105745         0.366972
 H         1.764778        -1.642524        -0.894443
 H         2.239781        -1.477550         0.842385
 H        -0.025579        -0.770696         2.179012
 H        -0.956826         0.684036         1.619010
