19
Iteration:   730
 O        -2.966278        -1.003647         1.737946
 C        -1.872735        -1.323168         0.903161
 C        -1.765819        -2.557480        -0.108562
 C        -1.708341        -1.122407        -0.602528
 O        -0.428603        -0.806982        -1.040892
 C         0.386933        -0.593967         0.126745
 C         1.250403         0.589771        -0.060125
 C         1.880905        -0.855923        -0.211179
 C        -0.495444        -0.766943         1.404244
 H        -3.623420        -1.692511         1.774045
 H        -0.740489        -2.979090        -0.090579
 H        -2.678397        -3.179517        -0.250416
 H        -2.587559        -0.932625        -1.182462
 H         1.065310         1.281760        -0.855489
 H         1.594224         1.147522         0.877951
 H         2.190343        -1.259367        -1.149996
 H         2.710700        -1.068877         0.585216
 H        -0.016264        -1.542608         2.053333
 H        -0.519129         0.161903         1.971299
