19
Iteration:  2201charge 0 multiplicity 1
 O        -3.016657        -1.216108         1.561340
 C        -1.738761        -1.349743         0.905047
 C        -1.492307        -2.550693         0.096737
 C        -1.696887        -1.177554        -0.616865
 O        -0.651143        -0.345231        -1.097738
 C         0.282480        -0.332738         0.060228
 C         1.709459         0.326003        -0.075116
 C         1.512834        -1.118513        -0.069682
 C        -0.576444        -0.583786         1.350774
 H        -3.114614        -1.965651         2.213053
 H        -0.509140        -3.009983         0.076639
 H        -2.313493        -3.213887         0.029339
 H        -2.767598        -0.886070        -1.046803
 H         1.850708         0.728556        -0.999716
 H         2.153183         0.651070         0.861889
 H         1.654372        -1.778511        -0.867588
 H         1.735469        -1.641626         0.829642
 H         0.135045        -1.245794         2.027284
 H        -0.962914         0.211120         1.939145
