19
Iteration:  1762charge 0 multiplicity 1
 O        -2.992229        -1.251731         1.528018
 C        -1.680911        -1.270131         0.862694
 C        -1.451428        -2.611525         0.083225
 C        -1.698478        -1.237746        -0.620107
 O        -0.649371        -0.281010        -1.028502
 C         0.264071        -0.387097         0.110160
 C         1.580849         0.279211        -0.072767
 C         1.515553        -1.236595        -0.082368
 C        -0.553984        -0.442678         1.361409
 H        -2.835786        -1.654008         2.407665
 H        -0.531524        -3.059139         0.082613
 H        -2.297378        -3.206052        -0.154143
 H        -2.582924        -1.226803        -1.174211
 H         1.639294         0.901815        -0.933867
 H         2.007957         0.862419         0.770563
 H         1.579448        -1.635141        -1.038579
 H         1.650835        -1.895666         0.796098
 H        -0.017138        -0.819861         2.272167
 H        -0.873284         0.552109         1.570278
