19
Iteration:   366charge 0 multiplicity 1
 O        -2.778036        -0.874314         1.730621
 C        -1.781295        -1.434421         0.903294
 C        -1.830388        -2.640707         0.109791
 C        -1.708372        -1.316721        -0.680473
 O        -0.476559        -0.671180        -1.103746
 C         0.316111        -0.432737         0.090852
 C         1.319982         0.701095        -0.199419
 C         1.741754        -0.840671         0.003494
 C        -0.513855        -0.955497         1.331204
 H        -3.554793        -1.432894         1.453834
 H        -1.072114        -3.369666         0.281658
 H        -2.820755        -3.017702        -0.140792
 H        -2.478551        -0.917669        -1.370610
 H         1.357632         1.101355        -1.197270
 H         1.479932         1.332291         0.643026
 H         2.200301        -1.357987        -0.886342
 H         2.143324        -1.121135         0.878510
 H         0.087283        -1.835310         1.832923
 H        -0.601256        -0.203074         2.077047
