19
Iteration:   245
 O        -2.882108        -0.919221         1.544409
 C        -1.666108        -1.396365         0.922869
 C        -1.841522        -2.555654         0.001171
 C        -1.775040        -1.251644        -0.575160
 O        -0.577361        -0.758342        -1.066631
 C         0.278880        -0.511674        -0.012223
 C         1.251284         0.567606        -0.116194
 C         1.846239        -0.742267         0.037884
 C        -0.348241        -0.903286         1.384389
 H        -3.019975        -1.460378         2.337514
 H        -1.040995        -3.275721        -0.300638
 H        -2.872778        -2.812831         0.100086
 H        -2.713327        -0.898261        -0.941492
 H         1.414288         0.881429        -1.117258
 H         1.414135         1.272551         0.642722
 H         2.392091        -1.097632        -0.746273
 H         2.260481        -1.096891         1.042212
 H         0.092361        -1.763720         2.036648
 H        -0.334951         0.020147         1.884287
