19
Iteration:  2757
 O        -2.996890        -0.993079         1.531685
 C        -1.824955        -1.306278         0.837925
 C        -1.784206        -2.676023         0.113789
 C        -1.755919        -1.158603        -0.640029
 O        -0.507401        -0.542038        -0.954611
 C         0.414719        -0.562629         0.098434
 C         1.438187         0.542212         0.032706
 C         1.827026        -0.944068        -0.214215
 C        -0.493744        -0.826763         1.289858
 H        -2.904128        -1.436990         2.393675
 H        -0.793517        -3.180510         0.202654
 H        -2.792798        -3.122139        -0.167230
 H        -2.612385        -1.045385        -1.163199
 H         1.241568         1.084523        -0.852556
 H         1.760856         1.051980         0.994955
 H         1.968423        -1.398077        -1.222416
 H         2.373232        -1.391766         0.699389
 H        -0.175975        -1.552932         2.103671
 H        -0.663531         0.153659         1.853475
