19
Iteration:  2615charge 0 multiplicity 1
 O        -2.950017        -1.218117         1.594755
 C        -1.744800        -1.353267         0.889196
 C        -1.430865        -2.560887         0.027468
 C        -1.653834        -1.205090        -0.642930
 O        -0.672412        -0.206670        -1.036817
 C         0.310313        -0.403247         0.092580
 C         1.560086         0.277127        -0.067393
 C         1.515801        -1.282218        -0.022193
 C        -0.565180        -0.469280         1.316602
 H        -2.925932        -1.849230         2.333629
 H        -0.409129        -2.985943        -0.064149
 H        -2.350078        -3.168605        -0.117103
 H        -2.535109        -1.296167        -1.403871
 H         1.778984         0.701717        -1.118045
 H         1.777335         0.959022         0.710044
 H         1.657764        -1.824103        -1.014111
 H         1.590925        -1.815223         0.923889
 H        -0.212732        -0.943458         2.249625
 H        -1.125684         0.404112         1.754223
