19
Iteration:  2176charge 0 multiplicity 1
 O        -2.978492        -1.245598         1.643733
 C        -1.791531        -1.351929         0.834995
 C        -1.445816        -2.551982        -0.077980
 C        -1.745464        -1.165891        -0.675361
 O        -0.661921        -0.323740        -0.957789
 C         0.335304        -0.382674         0.143699
 C         1.627763         0.299478        -0.185433
 C         1.547578        -1.224640         0.025612
 C        -0.550790        -0.407831         1.387962
 H        -3.213599        -2.139270         2.013768
 H        -0.504829        -3.081394         0.199973
 H        -2.273191        -3.319264        -0.154774
 H        -2.501309        -1.092755        -1.323858
 H         1.778712         0.540550        -1.339512
 H         2.046685         0.817222         0.638320
 H         1.592466        -1.704906        -0.994591
 H         1.932247        -1.780655         0.915734
 H        -0.040603        -0.844095         2.299059
 H        -1.112258         0.562237         1.634407
