19
Iteration:  1424charge 0 multiplicity 1
 O        -2.809209        -0.802572         1.608576
 C        -1.824606        -1.314067         0.874095
 C        -2.066680        -2.523250         0.026000
 C        -1.694578        -1.253498        -0.686548
 O        -0.367999        -0.988992        -1.108541
 C         0.342078        -0.559979         0.050418
 C         1.245930         0.717999         0.074855
 C         1.817882        -0.569438        -0.118659
 C        -0.359377        -1.150627         1.389272
 H        -3.199453        -1.552208         2.136782
 H        -1.524460        -3.402561         0.056543
 H        -3.110952        -2.718040        -0.112523
 H        -2.651661        -0.838818        -1.164008
 H         1.106681         1.488905        -0.682369
 H         1.503937         1.209020         1.075242
 H         2.225809        -0.933451        -1.019582
 H         2.365800        -0.952507         0.769231
 H         0.103677        -1.989354         1.754337
 H        -0.314295        -0.406016         2.167726
