19
Iteration:  3072
 O        -3.078410        -1.146823         1.488543
 C        -1.747632        -1.280987         0.883736
 C        -1.443213        -2.575137         0.055403
 C        -1.749401        -1.191348        -0.562488
 O        -0.704769        -0.381288        -1.001625
 C         0.270563        -0.480769        -0.006116
 C         1.574850         0.338025        -0.024838
 C         1.688747        -1.141596        -0.130156
 C        -0.440358        -0.564471         1.428591
 H        -3.397529        -1.544364         2.305169
 H        -0.451508        -3.111356         0.309248
 H        -2.294782        -3.267743        -0.188267
 H        -2.617809        -1.129266        -1.287093
 H         1.673860         0.995086        -0.866295
 H         1.838779         0.720563         1.039920
 H         1.797172        -1.463568        -1.157511
 H         1.950013        -1.884191         0.696818
 H         0.067630        -1.159985         2.133700
 H        -0.698677         0.468550         1.790377
