19
Iteration:  1132charge 0 multiplicity 1
 O        -2.896570        -0.781760         1.607060
 C        -1.763311        -1.405291         0.934528
 C        -2.056506        -2.539411        -0.056383
 C        -1.694200        -1.147573        -0.578198
 O        -0.386817        -1.059837        -0.977721
 C         0.354137        -0.563844         0.098298
 C         1.159781         0.740467        -0.042951
 C         1.873490        -0.586626        -0.144742
 C        -0.257797        -1.118723         1.357755
 H        -3.590524        -1.447590         1.842900
 H        -1.429243        -3.436513        -0.284986
 H        -3.057398        -2.826447        -0.203467
 H        -2.370808        -0.408962        -1.178586
 H         1.124451         1.386136        -0.942337
 H         1.199207         1.302338         0.971295
 H         2.208009        -0.810032        -1.086426
 H         2.561007        -0.920414         0.586081
 H         0.169815        -2.055877         1.572260
 H        -0.470331        -0.463118         2.142188
