19
Iteration:  4905charge 0 multiplicity 1
 O        -2.848926        -0.931114         1.770035
 C        -1.760400        -1.208075         0.809431
 C        -2.032699        -2.459805        -0.073873
 C        -1.684570        -1.177420        -0.686619
 O        -0.348119        -1.024934        -1.051958
 C         0.347812        -0.539722         0.142774
 C         1.188053         0.664391        -0.145240
 C         1.863082        -0.719109        -0.012915
 C        -0.390781        -1.046212         1.427131
 H        -3.674093        -0.838892         1.290492
 H        -1.398442        -3.342934        -0.157335
 H        -3.098594        -2.722587        -0.082849
 H        -2.313288        -0.576924        -1.381227
 H         1.157665         1.062194        -1.074796
 H         1.320808         1.316015         0.739685
 H         2.122625        -1.081450        -0.964457
 H         2.324313        -0.827920         0.978336
 H         0.007377        -2.095306         1.649627
 H        -0.460721        -0.365223         2.295277
