19
Iteration:  3776
 O        -2.973513        -0.853081         1.451280
 C        -1.837607        -1.382825         0.820053
 C        -1.876404        -2.647672        -0.008203
 C        -1.797026        -1.256235        -0.606083
 O        -0.493098        -0.809535        -0.957450
 C         0.357647        -0.479214         0.134190
 C         1.416533         0.656522         0.110359
 C         1.854237        -0.760837        -0.219046
 C        -0.387863        -0.960468         1.402500
 H        -2.971728        -1.243744         2.384999
 H        -0.946404        -3.242560        -0.121357
 H        -2.877766        -3.036307         0.170210
 H        -2.669356        -0.734723        -1.266915
 H         1.452146         1.358918        -0.722374
 H         1.972851         1.199186         0.943258
 H         1.958307        -0.901765        -1.259653
 H         2.316261        -1.414142         0.598303
 H         0.019237        -1.863676         1.935618
 H        -0.358505        -0.143562         2.127756
