19
Iteration:  2869
 O        -2.924587        -0.980502         1.607242
 C        -1.763361        -1.312733         0.815087
 C        -1.821849        -2.622543         0.028614
 C        -1.724495        -1.192064        -0.637741
 O        -0.507317        -0.662192        -1.137293
 C         0.376396        -0.487405         0.134209
 C         1.437563         0.560766         0.057821
 C         1.776099        -0.943674        -0.108961
 C        -0.585787        -0.804404         1.428607
 H        -2.691959        -1.550416         2.338845
 H        -0.908835        -3.256823        -0.119155
 H        -2.707934        -3.130479        -0.357628
 H        -2.625362        -0.676791        -1.181719
 H         1.230862         1.157832        -0.954694
 H         1.842108         1.168821         0.784731
 H         2.023188        -1.419820        -1.124447
 H         2.360212        -1.384128         0.707703
 H        -0.040655        -1.675604         2.031186
 H        -0.721018         0.087136         2.044728
