19
Iteration:  3910charge 0 multiplicity 1
 O        -3.083596        -1.188280         1.572381
 C        -1.810989        -1.382389         0.880078
 C        -1.455718        -2.495314         0.046722
 C        -1.736278        -1.167096        -0.635060
 O        -0.625147        -0.372037        -1.015119
 C         0.320983        -0.454161         0.083302
 C         1.530271         0.341103        -0.088466
 C         1.699719        -1.194743        -0.059733
 C        -0.582757        -0.531541         1.333482
 H        -2.743689        -1.468963         2.474665
 H        -0.397587        -2.647151         0.193402
 H        -2.029318        -3.440667        -0.062794
 H        -2.600223        -1.133505        -1.214691
 H         1.866521         0.891008        -0.973561
 H         1.950101         0.715530         0.904646
 H         1.797684        -1.687751        -1.055130
 H         2.205904        -1.792655         0.634266
 H        -0.116873        -0.943136         2.215605
 H        -1.002825         0.497542         1.541729
