19
Iteration:  1852
 O        -2.992632        -1.102790         1.668061
 C        -1.813782        -1.377613         0.869478
 C        -1.681589        -2.625716        -0.033352
 C        -1.816163        -1.201631        -0.646175
 O        -0.597876        -0.499758        -1.115365
 C         0.351949        -0.385593         0.064626
 C         1.580965         0.426452         0.020083
 C         1.794153        -1.067416        -0.046548
 C        -0.535731        -0.606584         1.321309
 H        -3.019640        -1.846628         2.269964
 H        -0.574550        -3.086653         0.090525
 H        -2.636479        -3.232244         0.185743
 H        -2.789391        -0.927935        -1.189309
 H         1.810682         0.902873        -0.992383
 H         2.042586         0.981467         0.886887
 H         2.203705        -1.208718        -1.140110
 H         2.295940        -1.717805         0.683499
 H        -0.162296        -0.988506         2.340117
 H        -1.099667         0.236147         1.725628
