19
Iteration:  1200
 O        -2.766377        -0.614669         1.587953
 C        -1.754702        -1.285154         0.831909
 C        -1.996199        -2.569887        -0.034210
 C        -1.778271        -1.164953        -0.687351
 O        -0.407693        -1.082971        -1.125531
 C         0.400352        -0.738932         0.095155
 C         0.933805         0.675387         0.152817
 C         1.864637        -0.504713        -0.032265
 C        -0.252383        -1.236674         1.331001
 H        -2.573160        -0.913145         2.472694
 H        -1.172990        -3.301316        -0.162597
 H        -3.053445        -3.093052        -0.127338
 H        -2.777613        -0.691790        -0.969243
 H         0.659315         1.271047        -0.696770
 H         0.973815         1.134426         1.080836
 H         2.268767        -0.551504        -1.077713
 H         2.452850        -0.814721         0.799872
 H         0.291180        -2.120492         1.584175
 H        -0.096147        -0.455025         2.106984
