19
Iteration:  1070
 O        -2.853018        -0.833926         1.664193
 C        -1.811654        -1.404695         0.844012
 C        -2.026380        -2.585493        -0.036424
 C        -1.683362        -1.159075        -0.602392
 O        -0.407365        -1.011046        -1.126710
 C         0.355779        -0.585148        -0.018438
 C         1.257583         0.786335         0.037561
 C         1.765560        -0.615105        -0.037284
 C        -0.383758        -1.075385         1.330589
 H        -2.671522        -1.027954         2.614446
 H        -1.031181        -3.196821        -0.121492
 H        -3.032838        -3.020090        -0.023473
 H        -2.508223        -0.477657        -0.984625
 H         1.372473         1.322336        -0.843201
 H         1.453717         1.340338         0.894521
 H         2.220632        -0.914618        -1.019202
 H         2.265607        -1.037263         0.824004
 H         0.035930        -2.028556         1.846322
 H        -0.435563        -0.377319         2.293641
