19
Iteration:  2202charge 0 multiplicity 1
 O        -3.017999        -1.215949         1.558665
 C        -1.736221        -1.351029         0.903623
 C        -1.489961        -2.549615         0.092472
 C        -1.696198        -1.172461        -0.619348
 O        -0.650596        -0.347193        -1.103842
 C         0.283828        -0.342148         0.059019
 C         1.695575         0.331669        -0.076510
 C         1.510134        -1.117790        -0.067742
 C        -0.563021        -0.583003         1.358879
 H        -3.125106        -1.946373         2.234269
 H        -0.511041        -3.016535         0.125850
 H        -2.333609        -3.194897         0.061232
 H        -2.788871        -0.887932        -1.054809
 H         1.847033         0.753909        -0.970528
 H         2.143276         0.639668         0.883856
 H         1.669675        -1.770247        -0.866535
 H         1.751053        -1.706640         0.811690
 H         0.125429        -1.227002         2.036812
 H        -0.949021         0.202352         1.949073
