19
Iteration:  2157
 O        -2.902739        -1.290913         1.607653
 C        -1.728761        -1.258369         0.910255
 C        -1.445238        -2.455122        -0.006835
 C        -1.681555        -1.125660        -0.624052
 O        -0.521014        -0.360722        -1.012764
 C         0.224933        -0.464280         0.132895
 C         1.445033         0.263990        -0.124916
 C         1.556733        -1.281726        -0.037589
 C        -0.661669        -0.431114         1.346254
 H        -3.022459        -2.161071         2.066629
 H        -0.497611        -2.851443        -0.310591
 H        -2.312057        -3.036663        -0.190761
 H        -2.604488        -0.911925        -1.184744
 H         1.193574         0.769473        -1.059981
 H         1.960895         0.775609         0.611796
 H         1.847643        -1.964188        -0.824913
 H         2.051504        -1.650951         0.761001
 H        -0.189101        -0.677854         2.375283
 H        -0.974336         0.577543         1.391898
