19
Iteration:  1341
 O        -2.756991        -0.650814         1.673475
 C        -1.814431        -1.368496         0.815922
 C        -2.199973        -2.542679        -0.054335
 C        -1.673900        -1.263520        -0.649181
 O        -0.360378        -1.107817        -1.060243
 C         0.379916        -0.586190         0.104486
 C         1.030625         0.774975         0.051192
 C         1.963063        -0.469345        -0.101766
 C        -0.303728        -1.278874         1.362445
 H        -3.285103        -1.346089         2.065767
 H        -1.615968        -3.498913         0.014822
 H        -3.316324        -2.651861        -0.176236
 H        -2.391056        -0.726960        -1.277429
 H         0.928356         1.323209        -0.821372
 H         1.178500         1.333991         0.931874
 H         2.477948        -0.446649        -1.009517
 H         2.377700        -0.717590         0.888060
 H         0.325721        -2.277197         1.274843
 H        -0.182238        -0.641323         2.254989
