19
Iteration:  4118
 O        -3.049344        -0.831430         1.493728
 C        -1.828932        -1.303256         0.864891
 C        -1.742539        -2.635575        -0.012117
 C        -1.724811        -1.223583        -0.559530
 O        -0.468219        -0.732864        -0.940666
 C         0.388972        -0.517478         0.199576
 C         1.378378         0.557799         0.008837
 C         1.807288        -0.910099        -0.260361
 C        -0.453259        -0.881555         1.394960
 H        -3.468005        -1.623480         1.810812
 H        -0.779160        -3.133245        -0.055082
 H        -2.539943        -3.382948        -0.127852
 H        -2.550163        -0.715352        -1.037357
 H         1.341049         1.382056        -0.843120
 H         1.688274         0.957172         0.949428
 H         2.038581        -1.119112        -1.362445
 H         2.441686        -1.390571         0.455271
 H         0.076682        -1.621009         2.019371
 H        -0.684107         0.052659         2.010986
