19
Iteration:  2412
 O        -2.840006        -0.792193         1.598734
 C        -1.791211        -1.300925         0.809940
 C        -1.850963        -2.638160        -0.074580
 C        -1.701713        -1.229107        -0.658148
 O        -0.494423        -0.630879        -1.005732
 C         0.345952        -0.619793         0.192469
 C         1.239607         0.553159        -0.014704
 C         1.788387        -0.836643        -0.117594
 C        -0.432576        -0.972111         1.389600
 H        -3.143166        -1.506281         2.182205
 H        -0.919942        -3.232835         0.005374
 H        -2.695850        -3.331801        -0.256253
 H        -2.467295        -0.941184        -1.230774
 H         0.908578         1.127648        -0.831411
 H         1.615121         1.174942         0.880903
 H         2.163938        -1.343033        -1.018690
 H         2.344457        -1.244708         0.810910
 H         0.006756        -1.889761         1.857122
 H        -0.442396        -0.101404         2.088732
