19
Iteration:  4831charge 0 multiplicity 1
 O        -2.928511        -0.749269         1.588234
 C        -1.816979        -1.243423         0.800519
 C        -1.930241        -2.551322         0.091239
 C        -1.715105        -1.189357        -0.645851
 O        -0.393352        -0.930784        -1.094822
 C         0.366996        -0.607663         0.089400
 C         1.231171         0.673780         0.003334
 C         1.869144        -0.711527        -0.072856
 C        -0.421228        -1.159374         1.354333
 H        -2.887584        -1.384048         2.346472
 H        -1.117964        -3.245347         0.001163
 H        -2.862775        -3.020217        -0.164389
 H        -2.513424        -0.711729        -1.223211
 H         1.176158         1.368594        -0.781239
 H         1.253760         1.312356         0.978984
 H         2.211434        -0.973019        -1.000320
 H         2.349032        -1.007191         0.845010
 H        -0.070448        -2.130175         1.704824
 H        -0.203913        -0.453424         2.251860
