19
Iteration:  2618
 O        -2.932949        -1.225229         1.569106
 C        -1.715351        -1.346235         0.888972
 C        -1.454605        -2.534333         0.028300
 C        -1.677804        -1.215220        -0.662994
 O        -0.671232        -0.218018        -0.991622
 C         0.276247        -0.410469         0.082109
 C         1.552756         0.275810        -0.084356
 C         1.513763        -1.287868         0.006602
 C        -0.554286        -0.462534         1.309190
 H        -2.981637        -1.904516         2.302992
 H        -0.371523        -2.901779        -0.143529
 H        -2.296226        -3.258184        -0.035178
 H        -2.418484        -1.217508        -1.296600
 H         1.750507         0.795701        -1.115695
 H         1.808234         0.918934         0.724680
 H         1.592300        -1.830691        -1.048751
 H         1.618452        -1.799879         1.018048
 H        -0.125557        -0.950405         2.247540
 H        -1.014031         0.432674         1.594307
