19
Iteration:  3877
 O        -2.975109        -1.187211         1.593329
 C        -1.708309        -1.299713         0.861128
 C        -1.669373        -2.491414        -0.043822
 C        -1.758903        -1.145539        -0.636065
 O        -0.535991        -0.600274        -1.064169
 C         0.338414        -0.429375         0.166026
 C         1.417038         0.434502        -0.096595
 C         1.710298        -1.123468        -0.004011
 C        -0.532593        -0.536949         1.400930
 H        -2.945891        -2.022287         2.075321
 H        -0.822206        -3.137831        -0.173714
 H        -2.605340        -3.075355        -0.036110
 H        -2.513017        -0.901747        -1.249095
 H         1.707767         0.891087        -1.104359
 H         1.853554         0.993583         0.762077
 H         1.744241        -1.552027        -1.032980
 H         2.166205        -1.469040         0.852201
 H         0.027029        -1.083069         2.149807
 H        -0.810131         0.471183         1.821174
