19
Iteration:  3341
 O        -2.928455        -0.830623         1.595482
 C        -1.792414        -1.368442         0.911078
 C        -2.040846        -2.396894        -0.110566
 C        -1.756970        -1.132189        -0.625743
 O        -0.331183        -1.086182        -1.013973
 C         0.387418        -0.643491         0.100406
 C         1.196174         0.771941        -0.074256
 C         1.849105        -0.581565         0.010587
 C        -0.285546        -1.203973         1.337860
 H        -3.185207        -1.243198         2.422458
 H        -1.243881        -3.102637        -0.357369
 H        -3.107364        -2.676013        -0.089629
 H        -2.445172        -0.471747        -1.022849
 H         1.108983         1.246531        -1.067728
 H         1.191030         1.476330         0.709848
 H         2.203797        -1.008296        -0.995575
 H         2.268503        -0.914246         0.886946
 H         0.235065        -2.118458         1.769299
 H        -0.359408        -0.466037         2.148452
