19
Iteration:  2142
 O        -2.940840        -1.324506         1.602773
 C        -1.756810        -1.276671         0.848824
 C        -1.485928        -2.456504        -0.001925
 C        -1.798026        -1.038979        -0.617553
 O        -0.565886        -0.508105        -1.051127
 C         0.307509        -0.447734         0.129067
 C         1.549389         0.328308        -0.066532
 C         1.532879        -1.232532        -0.054160
 C        -0.591974        -0.420507         1.338869
 H        -2.770523        -2.077917         2.213971
 H        -0.427331        -2.793221        -0.004562
 H        -2.272121        -3.274576         0.032799
 H        -2.646945        -0.831175        -1.240055
 H         1.814521         0.965853        -0.995890
 H         1.981872         0.878412         0.846657
 H         1.631847        -1.719656        -1.052314
 H         2.035016        -1.682629         0.895146
 H        -0.109761        -0.817619         2.231971
 H        -1.032721         0.619220         1.625736
