19
Iteration:  2627charge 0 multiplicity 1
 O        -2.907140        -1.240296         1.523864
 C        -1.693939        -1.315232         0.864447
 C        -1.441092        -2.509689         0.007889
 C        -1.747857        -1.193825        -0.666752
 O        -0.668770        -0.293763        -0.924380
 C         0.237253        -0.402680         0.065602
 C         1.544798         0.267002        -0.088752
 C         1.481114        -1.258751         0.033779
 C        -0.547846        -0.460984         1.332559
 H        -3.009751        -1.989553         2.167528
 H        -0.382568        -2.917786        -0.076150
 H        -2.151902        -3.346209         0.025060
 H        -2.592599        -0.935953        -1.236862
 H         1.709084         0.802890        -1.112664
 H         1.980955         0.732379         0.734425
 H         1.655649        -1.920714        -0.914253
 H         1.892204        -1.750009         0.948099
 H         0.138373        -0.788247         2.147590
 H        -0.835790         0.567719         1.442829
