19
Iteration:   650
 O        -2.957844        -1.034013         1.620457
 C        -1.839238        -1.294241         0.820181
 C        -1.547669        -2.601237         0.053140
 C        -1.747460        -1.228513        -0.645602
 O        -0.585718        -0.573482        -0.989980
 C         0.271580        -0.530102         0.093898
 C         1.345365         0.408987         0.036086
 C         1.808702        -0.971803        -0.205196
 C        -0.508208        -0.690261         1.351194
 H        -2.752092        -0.943395         2.557426
 H        -0.580452        -2.992075        -0.183586
 H        -2.258071        -3.334506        -0.183768
 H        -2.600248        -1.000442        -1.295921
 H         1.417508         1.218258        -0.797945
 H         1.554200         0.863028         1.045054
 H         1.926902        -1.294500        -1.273863
 H         2.419882        -1.483878         0.451441
 H        -0.044591        -1.374945         2.163225
 H        -0.604706         0.355989         1.688648
