19
Iteration:  1841
 O        -2.965495        -1.176277         1.650818
 C        -1.760846        -1.335279         0.878917
 C        -1.673742        -2.576893        -0.009984
 C        -1.733860        -1.175364        -0.625952
 O        -0.530079        -0.522143        -1.115991
 C         0.310222        -0.432039         0.111676
 C         1.542883         0.431967         0.006357
 C         1.647866        -1.096076        -0.083358
 C        -0.567143        -0.514091         1.354524
 H        -3.051395        -1.937064         2.265927
 H        -0.712321        -3.259691        -0.098131
 H        -2.569617        -3.266468        -0.181358
 H        -2.669271        -0.790933        -1.113894
 H         1.661963         0.931140        -1.015133
 H         1.962699         0.967004         0.878329
 H         1.896619        -1.642737        -1.077364
 H         2.120936        -1.530538         0.805634
 H         0.110468        -1.028612         2.107728
 H        -0.822656         0.519554         1.586300
