19
Iteration:   664charge 0 multiplicity 1
 O        -2.926773        -0.939284         1.561965
 C        -1.777104        -1.394828         0.881387
 C        -1.598283        -2.668341         0.033051
 C        -1.809212        -1.240485        -0.579529
 O        -0.602262        -0.547765        -1.118930
 C         0.334668        -0.517461         0.059198
 C         1.425437         0.568990         0.084462
 C         1.714027        -0.981923        -0.161556
 C        -0.507095        -0.793476         1.352558
 H        -2.615339        -1.049487         2.498142
 H        -0.624870        -3.056369         0.295906
 H        -2.469781        -3.392264        -0.064741
 H        -2.702589        -1.061962        -1.163398
 H         1.413233         1.087695        -0.890874
 H         1.782631         1.134060         1.040570
 H         2.060510        -1.098317        -1.216680
 H         2.164972        -1.585477         0.680642
 H         0.067224        -1.481562         2.034995
 H        -0.820689         0.039479         1.954953
