19
Iteration:  1534charge 0 multiplicity 1
 O        -2.995889        -0.871937         1.602750
 C        -1.861959        -1.348387         0.848422
 C        -1.993028        -2.595990        -0.008571
 C        -1.751947        -1.246292        -0.611137
 O        -0.464879        -0.879293        -1.085640
 C         0.401644        -0.574145         0.095054
 C         1.337150         0.691279         0.079347
 C         1.948484        -0.717256        -0.174985
 C        -0.357395        -0.930278         1.394042
 H        -2.936800        -1.271084         2.472287
 H        -1.086976        -3.241260        -0.108616
 H        -2.959342        -3.015613        -0.031283
 H        -2.603792        -0.677171        -1.192887
 H         1.223192         1.262527        -0.883742
 H         1.446668         1.161875         1.079975
 H         2.295822        -1.029857        -1.201962
 H         2.618338        -1.048877         0.572641
 H         0.227674        -1.894807         1.687834
 H        -0.344229        -0.168229         2.164247
