19
Iteration:  1220
 O        -2.695564        -0.671555         1.494804
 C        -1.715627        -1.349076         0.928140
 C        -2.122635        -2.521759        -0.007096
 C        -1.668844        -1.195966        -0.594958
 O        -0.368053        -1.126397        -1.022869
 C         0.384247        -0.602812         0.045454
 C         0.952576         0.787395         0.125314
 C         1.829474        -0.514457        -0.106832
 C        -0.342220        -1.305914         1.292296
 H        -2.754367        -0.909833         2.453743
 H        -1.371694        -3.311587        -0.115915
 H        -3.218955        -2.854100        -0.054440
 H        -2.250649        -0.452055        -1.369327
 H         0.932167         1.487947        -0.734202
 H         0.866707         1.221925         1.112956
 H         2.176235        -0.546474        -1.161858
 H         2.304378        -0.922133         0.676044
 H         0.034452        -2.322146         1.541733
 H        -0.304163        -0.792616         2.210168
