19
Iteration:   985
 O        -2.868320        -0.819074         1.606305
 C        -1.789701        -1.319704         0.802694
 C        -1.945285        -2.567983        -0.029792
 C        -1.820851        -1.184250        -0.631970
 O        -0.419174        -1.006597        -0.975984
 C         0.421687        -0.546235         0.100275
 C         1.239231         0.706868         0.124586
 C         1.825176        -0.643827        -0.212814
 C        -0.365918        -1.036451         1.381436
 H        -3.166381        -1.661863         2.020108
 H        -1.063987        -3.303551        -0.235261
 H        -2.855562        -3.139058        -0.010340
 H        -2.523969        -0.713200        -1.380330
 H         1.121507         1.350768        -0.749519
 H         1.339715         1.201626         1.095352
 H         1.985857        -0.732876        -1.359831
 H         2.592388        -1.254135         0.414416
 H         0.086310        -1.879981         1.941534
 H        -0.495777        -0.151567         2.071063
