19
Iteration:  2195charge 0 multiplicity 1
 O        -2.998608        -1.217718         1.579023
 C        -1.778828        -1.341167         0.899334
 C        -1.499733        -2.562954         0.097880
 C        -1.715399        -1.209424        -0.592529
 O        -0.650423        -0.336709        -1.040057
 C         0.265910        -0.266095         0.068420
 C         1.770798         0.290191        -0.080525
 C         1.526432        -1.152859        -0.073991
 C        -0.618512        -0.588236         1.323569
 H        -3.040751        -2.074488         2.055358
 H        -0.503162        -2.950581        -0.187498
 H        -2.246320        -3.364656        -0.195068
 H        -2.616713        -0.934748        -1.102176
 H         1.936563         0.696897        -1.163383
 H         2.274032         0.887928         0.733464
 H         1.601296        -1.827381        -0.977460
 H         1.734932        -1.367320         1.040285
 H         0.001997        -1.158977         1.917041
 H        -0.986472         0.351417         1.852865
