19
Iteration:  1216charge 0 multiplicity 1
 O        -2.701761        -0.658066         1.513326
 C        -1.704449        -1.364505         0.908991
 C        -2.073350        -2.521766        -0.016930
 C        -1.723467        -1.183146        -0.599155
 O        -0.383735        -1.113636        -1.044001
 C         0.358393        -0.631346         0.027985
 C         0.944725         0.744246         0.133842
 C         1.827916        -0.499776        -0.096923
 C        -0.342533        -1.293190         1.284288
 H        -2.725744        -0.807924         2.456831
 H        -1.234293        -3.197104        -0.163357
 H        -3.025367        -2.853370         0.098319
 H        -2.077782        -0.522587        -1.339092
 H         1.022693         1.457052        -0.723227
 H         0.827622         1.266221         1.159761
 H         2.216298        -0.580879        -1.085284
 H         2.508165        -0.910551         0.742648
 H        -0.129624        -2.349871         1.678419
 H        -0.266226        -0.759927         2.254546
