19
Iteration:  4016charge 0 multiplicity 1
 O        -2.984786        -1.237970         1.587964
 C        -1.763829        -1.254587         0.865082
 C        -1.659452        -2.458999         0.011704
 C        -1.710189        -1.144093        -0.686430
 O        -0.545661        -0.533297        -1.069700
 C         0.311146        -0.490882         0.100086
 C         1.522205         0.444039        -0.093461
 C         1.662028        -1.175116         0.001702
 C        -0.560916        -0.554380         1.424983
 H        -2.769552        -1.982748         2.230234
 H        -0.738785        -3.070111         0.015624
 H        -2.570864        -3.074171        -0.053342
 H        -2.635672        -0.933734        -1.215838
 H         1.735060         0.837055        -1.084576
 H         1.958287         1.210027         0.728013
 H         1.918723        -1.765879        -0.905259
 H         2.051833        -1.448512         0.959504
 H        -0.096796        -0.925187         2.375955
 H        -0.795611         0.511504         1.472068
