19
Iteration:  3642
 O        -2.909735        -0.765596         1.547667
 C        -1.786689        -1.367526         0.865201
 C        -2.005866        -2.502416        -0.163885
 C        -1.676954        -1.140043        -0.530505
 O        -0.353227        -1.022719        -0.971504
 C         0.370376        -0.626672         0.126397
 C         1.122938         0.714830         0.007538
 C         1.803126        -0.600742        -0.124892
 C        -0.324656        -1.128955         1.402112
 H        -3.141934        -1.345134         2.302140
 H        -1.180322        -3.226400        -0.183703
 H        -2.973988        -2.910672        -0.442188
 H        -2.374400        -0.595727        -1.043183
 H         1.195499         1.144981        -0.965420
 H         1.408809         1.224401         0.881643
 H         2.016017        -1.051964        -1.071916
 H         2.560285        -0.931809         0.659553
 H         0.197397        -2.053100         1.749706
 H        -0.337075        -0.417111         2.213619
