19
Iteration:  4596
 O        -2.907388        -0.647052         1.522827
 C        -1.835438        -1.456006         0.876933
 C        -1.881539        -2.754293        -0.047451
 C        -1.781584        -1.219690        -0.573579
 O        -0.532569        -0.808849        -1.048323
 C         0.380153        -0.559146         0.074117
 C         1.403984         0.682189         0.050431
 C         1.854578        -0.726523        -0.120778
 C        -0.404952        -1.051062         1.395851
 H        -3.471984        -1.284944         1.962592
 H        -1.084450        -3.505171        -0.106373
 H        -2.809629        -3.271397        -0.183307
 H        -2.648913        -0.643586        -0.948574
 H         1.203981         1.482030        -0.718597
 H         1.744230         0.989257         1.029391
 H         2.120635        -1.194755        -1.042621
 H         2.503699        -1.103619         0.686803
 H         0.300682        -1.554370         2.123753
 H        -0.454043        -0.192780         2.034314
