19
Iteration:  1583
 O        -2.839306        -0.780854         1.583130
 C        -1.789335        -1.336245         0.843966
 C        -1.789804        -2.589355        -0.030903
 C        -1.776138        -1.285046        -0.645670
 O        -0.559987        -0.779912        -1.030295
 C         0.303193        -0.498807         0.124790
 C         1.296906         0.665515        -0.001404
 C         1.801186        -0.823730        -0.101494
 C        -0.403047        -1.024215         1.411682
 H        -3.366500        -1.459990         2.085027
 H        -0.849999        -3.187855        -0.082812
 H        -2.843984        -3.153883        -0.104404
 H        -2.487248        -0.941375        -1.320568
 H         1.419468         1.290854        -0.871514
 H         1.580426         1.095324         1.012757
 H         2.186381        -1.083135        -1.062262
 H         2.515681        -1.374565         0.664725
 H         0.160958        -1.856845         1.717652
 H        -0.457302        -0.238894         2.205527
