19
Iteration:    44
 O        -2.916395        -1.202011         1.631179
 C        -1.738936        -1.261726         0.877411
 C        -1.313143        -2.586984         0.073176
 C        -1.655282        -1.342898        -0.641415
 O        -0.721768        -0.380859        -1.012714
 C         0.232374        -0.378232         0.004694
 C         1.476068         0.339108        -0.063957
 C         1.473738        -1.189732        -0.083479
 C        -0.539693        -0.402530         1.312168
 H        -2.884197        -1.893909         2.286479
 H        -0.386139        -3.025427         0.326849
 H        -2.122713        -3.235483         0.000976
 H        -2.428162        -1.419028        -1.381620
 H         1.825286         0.859712        -0.951212
 H         1.758636         0.839192         0.856337
 H         1.605538        -1.670681        -0.999899
 H         1.629406        -1.733261         0.846115
 H         0.010183        -0.761768         2.161306
 H        -0.839750         0.660271         1.515173
