19
Iteration:  4823charge 0 multiplicity 1
 O        -2.956794        -0.703150         1.602630
 C        -1.869152        -1.282401         0.898384
 C        -1.885446        -2.582712         0.018295
 C        -1.762991        -1.215619        -0.666765
 O        -0.433306        -0.920010        -1.111821
 C         0.422027        -0.583751         0.068139
 C         1.246081         0.645942         0.009307
 C         1.910204        -0.669643        -0.043738
 C        -0.409756        -1.154756         1.360972
 H        -2.978507        -1.009114         2.525744
 H        -0.998095        -3.183489        -0.045961
 H        -2.816690        -3.067089        -0.165953
 H        -2.466498        -0.933249        -1.353430
 H         1.159308         1.361155        -0.824306
 H         1.412588         1.243365         0.930942
 H         2.297098        -1.011030        -0.997712
 H         2.441188        -1.012408         0.766180
 H        -0.082413        -2.145453         1.528511
 H        -0.351430        -0.745844         2.344805
