19
Iteration:   154
 O        -2.944604        -0.977556         1.634853
 C        -1.727442        -1.334158         0.923612
 C        -1.574417        -2.674354         0.061767
 C        -1.761129        -1.261928        -0.553801
 O        -0.644577        -0.631533        -1.152104
 C         0.307182        -0.498878        -0.039823
 C         1.414086         0.550425         0.079319
 C         1.736073        -0.970628        -0.146220
 C        -0.452679        -0.635313         1.340852
 H        -3.383200        -1.866867         1.715426
 H        -0.599570        -3.124943         0.282257
 H        -2.524326        -3.312559        -0.149299
 H        -2.711229        -1.085874        -1.090881
 H         1.677129         1.262554        -0.751627
 H         1.387447         0.982767         1.101750
 H         2.179319        -1.302540        -1.102952
 H         2.035447        -1.684030         0.649968
 H         0.111564        -1.143550         2.187253
 H        -0.860033         0.332753         1.743290
