19
Iteration:  4520charge 0 multiplicity 1
 O        -2.993889        -0.925259         1.639921
 C        -1.787940        -1.378567         0.826275
 C        -1.897869        -2.572455        -0.133796
 C        -1.752474        -1.162826        -0.587169
 O        -0.489754        -0.815683        -1.022723
 C         0.449456        -0.501589         0.098107
 C         1.370186         0.576166        -0.042006
 C         1.840306        -0.873659        -0.007838
 C        -0.390496        -0.814706         1.359541
 H        -3.071797        -1.607844         2.373400
 H        -1.056458        -3.199245        -0.425783
 H        -2.820805        -3.125801        -0.156380
 H        -2.698022        -0.679214        -1.127815
 H         1.484584         1.098654        -1.111331
 H         1.536658         1.318506         0.744342
 H         2.066893        -1.353371        -0.969166
 H         2.293133        -1.293750         0.864924
 H         0.070436        -1.311795         2.280212
 H        -0.850533         0.146332         1.796930
