19
Iteration:  3659
 O        -2.834950        -0.826182         1.556189
 C        -1.767022        -1.452496         0.869339
 C        -2.107568        -2.531879        -0.047000
 C        -1.711496        -1.119738        -0.676022
 O        -0.369210        -0.955616        -1.050878
 C         0.432271        -0.626581         0.190519
 C         1.201938         0.748182        -0.029426
 C         1.928853        -0.665457        -0.095896
 C        -0.417962        -1.111451         1.416231
 H        -3.320904        -1.431972         2.123161
 H        -1.485451        -3.363956        -0.379059
 H        -3.166470        -2.848214         0.051804
 H        -2.556305        -0.419359        -1.065489
 H         0.600714         1.323422        -0.769477
 H         1.372898         1.506287         0.848679
 H         2.322552        -0.930430        -1.066408
 H         2.483769        -0.826224         0.846985
 H         0.027023        -1.847370         2.082183
 H        -0.517043        -0.142455         2.007033
