19
Iteration:  1305charge 0 multiplicity 1
 O        -2.621405        -0.712972         1.679693
 C        -1.703712        -1.280555         0.850447
 C        -2.145445        -2.485476        -0.061434
 C        -1.673809        -1.136611        -0.713361
 O        -0.356428        -1.191771        -1.056554
 C         0.384628        -0.683335         0.043164
 C         0.828923         0.695962         0.086082
 C         1.854611        -0.477967        -0.035592
 C        -0.291163        -1.212054         1.350665
 H        -3.399192        -1.249363         1.696432
 H        -1.603636        -3.388133        -0.088271
 H        -3.206927        -2.597983        -0.161828
 H        -2.429385        -0.471289        -1.318051
 H         0.756606         1.265517        -0.912890
 H         0.714507         1.401250         0.962242
 H         2.559690        -0.530884        -0.926979
 H         2.422219        -0.816542         0.791475
 H         0.216541        -2.229434         1.843615
 H        -0.228029        -0.549418         2.207565
