19
Iteration:  3760
 O        -2.930637        -0.852373         1.435551
 C        -1.781027        -1.421051         0.892496
 C        -1.991344        -2.649955         0.028974
 C        -1.729113        -1.231815        -0.562733
 O        -0.515771        -0.734358        -1.051249
 C         0.437749        -0.571769         0.165423
 C         1.426181         0.701776         0.071657
 C         1.846442        -0.752645        -0.152165
 C        -0.413976        -0.993406         1.347747
 H        -3.012996        -1.056798         2.410489
 H        -1.317969        -3.497240         0.050225
 H        -2.920335        -3.142877        -0.298084
 H        -2.551270        -0.842864        -0.991755
 H         1.205952         1.358800        -0.792368
 H         1.378489         1.078694         1.047206
 H         2.000207        -1.153583        -1.219912
 H         2.648153        -0.999081         0.494066
 H         0.165911        -1.707113         1.912449
 H        -0.801053        -0.214617         2.037782
