19
Iteration:  4749charge 0 multiplicity 1
 O        -2.929099        -0.775558         1.636841
 C        -1.897890        -1.323373         0.916816
 C        -1.923835        -2.558417        -0.023972
 C        -1.731886        -1.137677        -0.616874
 O        -0.382399        -0.999102        -1.047372
 C         0.425940        -0.587540         0.037821
 C         1.262733         0.672165         0.055998
 C         1.909972        -0.681433        -0.156343
 C        -0.472012        -1.032514         1.367677
 H        -3.527668        -1.554845         1.847884
 H        -1.016728        -3.151769        -0.017585
 H        -2.902801        -2.974415        -0.200538
 H        -2.427462        -0.833537        -1.285097
 H         1.422124         1.341567        -0.779294
 H         1.330597         1.116219         1.069955
 H         2.345552        -0.915292        -1.169026
 H         2.551774        -1.146879         0.569856
 H        -0.150648        -2.072587         1.815517
 H        -0.327062        -0.220353         2.047385
