19
Iteration:  2837charge 0 multiplicity 1
 O        -2.981810        -1.008219         1.680588
 C        -1.784114        -1.255182         0.875645
 C        -1.895360        -2.570923        -0.059811
 C        -1.742356        -1.208533        -0.651166
 O        -0.532431        -0.692645        -1.012720
 C         0.428145        -0.569455         0.005629
 C         1.347897         0.588088        -0.000342
 C         1.865245        -0.954416         0.030602
 C        -0.418664        -0.782527         1.295256
 H        -3.021009        -1.790945         2.272264
 H        -1.044511        -3.214730        -0.341301
 H        -2.785273        -3.050982        -0.437392
 H        -2.642159        -0.754086        -1.256095
 H         1.424194         1.147154        -1.037477
 H         1.455678         1.212967         0.808996
 H         2.264060        -1.268487        -0.974511
 H         2.320119        -1.288501         0.957591
 H         0.264375        -1.504545         1.881200
 H        -0.433723         0.170040         1.797895
