19
Iteration:  2187
 O        -2.976267        -1.232847         1.608163
 C        -1.832915        -1.338693         0.844190
 C        -1.486504        -2.599975         0.012331
 C        -1.762392        -1.205690        -0.595860
 O        -0.652279        -0.334368        -0.967255
 C         0.280573        -0.244828         0.081583
 C         1.757741         0.298039        -0.144389
 C         1.521609        -1.194721        -0.003953
 C        -0.583327        -0.519296         1.336716
 H        -3.143722        -2.101069         1.996353
 H        -0.413251        -2.880126        -0.055614
 H        -2.284055        -3.334872        -0.268153
 H        -2.526403        -1.114667        -1.240321
 H         1.987639         0.784108        -1.206939
 H         2.282466         0.932662         0.528744
 H         1.715312        -1.828013        -0.916761
 H         1.886281        -1.745122         0.895529
 H        -0.046166        -1.033679         2.199663
 H        -0.961971         0.479417         1.751905
