19
Iteration:  2226charge 0 multiplicity 1
 O        -2.969935        -1.149858         1.520983
 C        -1.754221        -1.231416         0.874946
 C        -1.502642        -2.540216         0.028033
 C        -1.706255        -1.210256        -0.602937
 O        -0.607382        -0.434450        -0.942122
 C         0.306341        -0.527834         0.084756
 C         1.412762         0.378213         0.052517
 C         1.582294        -1.192725        -0.186765
 C        -0.483585        -0.525525         1.349428
 H        -2.854513        -1.584229         2.382858
 H        -0.498726        -2.899093        -0.227835
 H        -2.354019        -3.209237        -0.228931
 H        -2.587299        -1.045346        -1.317252
 H         1.478401         0.795890        -0.987120
 H         1.577209         0.889425         1.007976
 H         1.903425        -1.559380        -1.191768
 H         2.151099        -1.872681         0.530786
 H         0.062012        -1.036736         2.126955
 H        -0.716882         0.482768         1.747129
