19
Iteration:  1152charge 0 multiplicity 1
 O        -2.765003        -0.750704         1.591757
 C        -1.804743        -1.324193         0.814812
 C        -2.152510        -2.578112        -0.012151
 C        -1.717284        -1.238238        -0.617327
 O        -0.402823        -1.080857        -1.027018
 C         0.362656        -0.501915         0.121515
 C         1.181877         0.841176         0.062559
 C         1.863282        -0.600126        -0.123168
 C        -0.282165        -1.176075         1.355861
 H        -3.387894        -1.507252         1.735103
 H        -1.398130        -3.323220        -0.114127
 H        -3.110225        -2.970573        -0.007278
 H        -2.606603        -0.770206        -1.054331
 H         0.918124         1.404107        -0.874108
 H         1.437640         1.565033         0.948905
 H         2.077822        -1.047820        -1.034138
 H         2.506495        -0.893074         0.747181
 H         0.148983        -2.191312         1.435674
 H        -0.116432        -0.624035         2.258760
