19
Iteration:   145charge 0 multiplicity 1
 O        -2.950970        -0.971681         1.693332
 C        -1.743156        -1.295195         0.880946
 C        -1.559380        -2.654446        -0.000062
 C        -1.734379        -1.356282        -0.616933
 O        -0.634653        -0.572564        -1.151157
 C         0.299310        -0.453200        -0.016228
 C         1.387660         0.508368         0.034686
 C         1.669225        -0.999409        -0.042826
 C        -0.450335        -0.625129         1.362712
 H        -3.406219        -1.835266         1.902168
 H        -0.463505        -3.074243        -0.001183
 H        -2.246547        -3.649685        -0.014640
 H        -2.719733        -1.062906        -1.002380
 H         1.761597         0.898149        -0.921195
 H         1.581528         1.098565         0.957169
 H         1.971618        -1.233948        -1.159826
 H         2.023237        -1.644887         0.745449
 H         0.313790        -1.183465         2.080175
 H        -0.693053         0.317367         1.811773
