19
Iteration:  2843charge 0 multiplicity 1
 O        -2.992285        -0.991178         1.712789
 C        -1.801975        -1.323451         0.864706
 C        -1.880641        -2.535091        -0.072026
 C        -1.809224        -1.215663        -0.688297
 O        -0.498004        -0.675220        -0.982974
 C         0.431714        -0.552735         0.018085
 C         1.380754         0.570214        -0.026165
 C         1.849644        -0.917915         0.003549
 C        -0.427866        -0.827403         1.274726
 H        -2.932340        -1.696423         2.351503
 H        -1.014548        -3.236816        -0.086440
 H        -2.809217        -3.138618        -0.393564
 H        -2.449442        -0.851424        -1.399022
 H         1.606068         1.089201        -0.893066
 H         1.482687         1.280982         0.890814
 H         2.223685        -1.315809        -0.929025
 H         2.487387        -1.194592         0.910321
 H         0.102525        -1.453921         1.967145
 H        -0.579546         0.213275         1.713844
