19
Iteration:  3886
 O        -3.000049        -1.196852         1.592722
 C        -1.773698        -1.227717         0.841569
 C        -1.546909        -2.525896        -0.026421
 C        -1.754116        -1.131287        -0.620746
 O        -0.567899        -0.554449        -1.007340
 C         0.311241        -0.522744         0.135071
 C         1.451015         0.410048        -0.059926
 C         1.700760        -1.125514        -0.038671
 C        -0.536135        -0.497979         1.368830
 H        -2.817577        -1.952685         2.155993
 H        -0.697540        -3.083203        -0.378802
 H        -2.502811        -3.026654        -0.026525
 H        -2.550610        -1.026291        -1.265802
 H         1.274904         0.867703        -1.129056
 H         2.040032         0.925199         0.679627
 H         2.093149        -1.592614        -0.942822
 H         2.157779        -1.654482         0.768359
 H        -0.172997        -1.096632         2.198533
 H        -0.782125         0.526909         1.683014
