19
Iteration:  2459charge 0 multiplicity 1
 O        -3.032039        -0.940855         1.570069
 C        -1.811794        -1.345859         0.861631
 C        -1.837406        -2.592758        -0.053420
 C        -1.875204        -1.160097        -0.551862
 O        -0.543459        -0.802917        -1.053206
 C         0.404889        -0.557901         0.051438
 C         1.439901         0.616336         0.117871
 C         1.921675        -0.846476        -0.144511
 C        -0.398633        -0.850309         1.331076
 H        -3.036596        -1.509536         2.389202
 H        -1.035607        -3.285711        -0.231804
 H        -2.725132        -3.161842         0.032213
 H        -2.715491        -0.602341        -1.023340
 H         1.582970         1.346846        -0.761213
 H         1.722061         1.048067         1.025497
 H         2.359522        -1.102889        -1.097035
 H         2.566202        -1.176375         0.573834
 H         0.086977        -1.560333         1.940446
 H        -0.538838         0.153846         1.833182
