19
Iteration:  3857charge 0 multiplicity 1
 O        -2.931085        -1.075830         1.655253
 C        -1.780333        -1.439271         0.861496
 C        -1.798663        -2.591011        -0.020980
 C        -1.730029        -1.134405        -0.613319
 O        -0.488737        -0.653701        -1.070639
 C         0.287292        -0.407482         0.052534
 C         1.640521         0.527718        -0.099077
 C         1.626281        -0.949003         0.050574
 C        -0.514860        -0.683818         1.339506
 H        -3.206781        -2.012136         1.859127
 H        -0.957996        -3.222841        -0.252523
 H        -2.723148        -3.208163        -0.159644
 H        -2.568563        -0.660491        -1.036998
 H         1.449035         0.996373        -1.055621
 H         2.020655         1.121647         0.749895
 H         2.123707        -1.449888        -0.838129
 H         1.901649        -1.424754         0.956838
 H         0.022491        -1.214163         2.121086
 H        -0.916945         0.285574         1.755896
