19
Iteration:  2630
 O        -2.909316        -1.244860         1.515437
 C        -1.707962        -1.303197         0.858229
 C        -1.412640        -2.518643        -0.008915
 C        -1.781253        -1.169278        -0.655021
 O        -0.673727        -0.331941        -0.938714
 C         0.255696        -0.399654         0.086344
 C         1.542472         0.259344        -0.087719
 C         1.469463        -1.240923         0.015593
 C        -0.545011        -0.446992         1.344627
 H        -2.967741        -1.999624         2.102372
 H        -0.372539        -2.949289        -0.014263
 H        -2.175382        -3.316485         0.000375
 H        -2.641293        -0.848577        -1.123683
 H         1.724106         0.704857        -1.079133
 H         2.068148         0.715807         0.785012
 H         1.728817        -1.936791        -0.858297
 H         1.983962        -1.713959         0.917641
 H         0.163285        -0.724960         2.164727
 H        -0.855494         0.548794         1.540114
