19
Iteration:  1338charge 0 multiplicity 1
 O        -2.751938        -0.644714         1.688649
 C        -1.821717        -1.387100         0.835581
 C        -2.216005        -2.557951        -0.048692
 C        -1.695339        -1.265569        -0.659469
 O        -0.333241        -1.113622        -1.087668
 C         0.395197        -0.591056         0.101095
 C         1.023492         0.782941         0.049629
 C         1.965598        -0.462944        -0.091673
 C        -0.326347        -1.272515         1.357071
 H        -3.332861        -1.343815         2.041809
 H        -1.637103        -3.419091        -0.016225
 H        -3.288296        -2.640576        -0.183322
 H        -2.431664        -0.616383        -1.292911
 H         0.859013         1.444197        -0.839969
 H         1.134210         1.352854         1.009591
 H         2.628946        -0.574977        -0.984512
 H         2.452511        -0.719665         0.823612
 H         0.368432        -2.199768         1.384493
 H        -0.091053        -0.697759         2.221584
