19
Iteration:   238charge 0 multiplicity 1
 O        -2.878175        -0.942423         1.484401
 C        -1.646692        -1.348857         0.892320
 C        -1.808248        -2.569916         0.017822
 C        -1.827547        -1.218712        -0.551919
 O        -0.605007        -0.752657        -1.059366
 C         0.289702        -0.545565         0.059114
 C         1.258945         0.594241        -0.142269
 C         1.825199        -0.777941         0.023665
 C        -0.322456        -0.923996         1.454433
 H        -2.923631        -1.319533         2.360013
 H        -1.045100        -3.165658        -0.276647
 H        -2.823848        -2.915567         0.004900
 H        -2.712443        -0.910784        -1.178161
 H         1.395407         0.858146        -1.224287
 H         1.458143         1.448668         0.538532
 H         2.396817        -1.167589        -0.840135
 H         2.203444        -1.070299         0.991199
 H         0.210222        -1.691607         1.904611
 H        -0.470270        -0.049296         2.179073
