19
Iteration:   377charge 0 multiplicity 1
 O        -2.799841        -0.944925         1.805707
 C        -1.867591        -1.319625         0.814710
 C        -1.838852        -2.651321         0.104242
 C        -1.655096        -1.292811        -0.681256
 O        -0.430721        -0.727077        -1.147859
 C         0.303038        -0.433264         0.031603
 C         1.269807         0.641630        -0.096252
 C         1.764455        -0.858527        -0.026145
 C        -0.450344        -0.850172         1.340567
 H        -3.697404        -1.264197         1.781761
 H        -0.981442        -3.251275         0.106453
 H        -2.780623        -3.187540        -0.032732
 H        -2.483663        -1.168343        -1.401474
 H         1.295011         1.233852        -0.984164
 H         1.467719         1.233076         0.778621
 H         1.941284        -1.410121        -0.987179
 H         2.306138        -1.123927         0.774858
 H         0.212256        -1.649640         1.853740
 H        -0.699059        -0.079368         2.039778
