19
Iteration:   214charge 0 multiplicity 1
 O        -3.018320        -0.933306         1.585100
 C        -1.787268        -1.392370         0.878278
 C        -1.752646        -2.615420         0.037821
 C        -1.715330        -1.203248        -0.575201
 O        -0.431474        -0.725335        -0.997663
 C         0.329793        -0.482415         0.148570
 C         1.300059         0.611770        -0.173051
 C         1.792166        -0.837252        -0.150971
 C        -0.458994        -0.905275         1.361043
 H        -2.896916        -1.321270         2.485177
 H        -0.804767        -3.089304        -0.004206
 H        -2.566016        -3.238935         0.043581
 H        -2.570317        -0.706890        -1.057245
 H         1.108967         1.146282        -1.094607
 H         1.740227         1.228883         0.570372
 H         1.858614        -1.387226        -0.994901
 H         2.507687        -1.047487         0.708510
 H         0.046595        -1.712833         1.922729
 H        -0.536947        -0.034380         2.002954
