19
Iteration:  3080charge 0 multiplicity 1
 O        -3.108043        -1.111878         1.462754
 C        -1.733291        -1.319883         0.940999
 C        -1.469124        -2.565571         0.134588
 C        -1.781157        -1.183769        -0.626189
 O        -0.662161        -0.386256        -1.022899
 C         0.304939        -0.456263         0.058981
 C         1.540268         0.370199         0.025620
 C         1.656608        -1.145145        -0.151443
 C        -0.451431        -0.660097         1.348769
 H        -3.147794        -1.509864         2.371419
 H        -0.425341        -2.961066        -0.059769
 H        -2.288416        -3.329033         0.207285
 H        -2.636546        -1.092320        -1.233725
 H         1.859085         0.896806        -0.957743
 H         1.755642         1.019063         0.874191
 H         1.876920        -1.367792        -1.216442
 H         2.114947        -1.774648         0.635428
 H         0.193115        -1.282968         2.010412
 H        -0.606786         0.315272         1.853080
