19
Iteration:     6
 O        -2.940136        -1.136227         1.615000
 C        -1.779373        -1.358620         0.898671
 C        -1.492666        -2.594163         0.079972
 C        -1.740555        -1.238368        -0.618005
 O        -0.600775        -0.506900        -1.047536
 C         0.232185        -0.374598         0.077625
 C         1.484045         0.463265        -0.116104
 C         1.678907        -1.042180        -0.110745
 C        -0.537752        -0.605047         1.325281
 H        -3.008487        -1.713995         2.404978
 H        -0.507695        -3.099305         0.216794
 H        -2.363028        -3.356464         0.178435
 H        -2.599865        -1.181606        -1.302737
 H         1.583199         0.936561        -1.107043
 H         1.837467         1.063406         0.735266
 H         1.744699        -1.645631        -1.038578
 H         1.975282        -1.600552         0.842461
 H        -0.056280        -1.098789         2.225299
 H        -0.904478         0.399225         1.622898
