19
Iteration:  4685charge 0 multiplicity 1
 O        -2.781149        -0.807618         1.622449
 C        -1.771960        -1.408995         0.864421
 C        -2.069700        -2.582634        -0.153120
 C        -1.799781        -1.163703        -0.598868
 O        -0.382088        -0.989560        -1.110445
 C         0.346882        -0.535408         0.094778
 C         1.278450         0.688996        -0.020318
 C         1.817636        -0.737479         0.034702
 C        -0.368472        -0.937744         1.392011
 H        -3.339625        -1.344322         2.186711
 H        -1.238254        -3.207105        -0.432590
 H        -2.975603        -3.196967        -0.088175
 H        -2.409080        -0.445768        -0.954504
 H         1.233945         1.229126        -0.870235
 H         1.535867         1.395264         0.715244
 H         2.065774        -1.253522        -0.916640
 H         2.282088        -1.020720         1.001849
 H         0.068135        -1.761449         2.035820
 H        -0.611095        -0.113205         2.064163
