19
Iteration:  4464charge 0 multiplicity 1
 O        -3.083633        -0.906900         1.553970
 C        -1.903887        -1.334105         0.876576
 C        -1.543527        -2.579192         0.031827
 C        -1.736435        -1.251252        -0.639302
 O        -0.566598        -0.572033        -0.982543
 C         0.345139        -0.541495         0.076838
 C         1.490103         0.446448         0.018504
 C         1.758310        -0.996905        -0.164412
 C        -0.468543        -0.732567         1.355124
 H        -3.265367        -1.538320         2.267189
 H        -0.516859        -2.865951         0.156241
 H        -2.270768        -3.362461        -0.171146
 H        -2.691072        -1.119484        -1.285138
 H         1.440585         1.048256        -0.905478
 H         1.953211         0.901065         1.036705
 H         2.013082        -1.303346        -1.138257
 H         2.215486        -1.323058         0.716609
 H         0.048195        -1.638115         1.853491
 H        -0.638758         0.150144         1.964678
