19
Iteration:  1530
 O        -3.015126        -0.876915         1.612516
 C        -1.834130        -1.307907         0.887763
 C        -2.024683        -2.630006        -0.018911
 C        -1.768788        -1.242305        -0.655629
 O        -0.463632        -0.903359        -1.114813
 C         0.399904        -0.550696         0.131594
 C         1.372310         0.709159         0.070107
 C         1.953082        -0.695321        -0.169021
 C        -0.350139        -0.930959         1.384465
 H        -2.876491        -1.365928         2.470078
 H        -1.161786        -3.197937        -0.189879
 H        -2.976970        -3.168797         0.043346
 H        -2.483390        -0.680074        -1.194892
 H         1.109190         1.166693        -0.848310
 H         1.559794         1.029618         1.111216
 H         2.165154        -1.010152        -1.146213
 H         2.616589        -1.084495         0.645118
 H         0.214894        -1.839799         1.658670
 H        -0.294087        -0.180904         2.219769
