19
Iteration:   535
 O        -2.871362        -1.433384         1.791725
 C        -1.832646        -1.243806         0.889356
 C        -1.471314        -2.552346         0.061746
 C        -1.722168        -1.279485        -0.643225
 O        -0.617808        -0.417040        -1.138205
 C         0.286694        -0.282518         0.072229
 C         1.636477         0.301949        -0.014858
 C         1.571742        -1.208678        -0.103527
 C        -0.659907        -0.310781         1.276764
 H        -3.697832        -0.981722         1.516860
 H        -0.501300        -3.094171         0.186340
 H        -2.417237        -3.225913         0.031554
 H        -2.553932        -1.043259        -1.311796
 H         1.993770         0.821090        -0.953130
 H         1.942927         0.834102         0.904717
 H         1.651560        -1.549666        -1.257121
 H         1.960721        -1.938703         0.598532
 H        -0.101929        -0.700370         2.112813
 H        -0.969279         0.798004         1.561664
