19
Iteration:   421
 O        -2.954565        -1.023623         1.634311
 C        -1.734127        -1.337391         0.917442
 C        -1.752644        -2.701317         0.112008
 C        -1.802217        -1.162715        -0.552049
 O        -0.532718        -0.809910        -1.110746
 C         0.339101        -0.542673         0.060534
 C         1.366860         0.543270         0.017128
 C         1.838954        -0.846652        -0.178886
 C        -0.449230        -0.584279         1.296708
 H        -3.459193        -1.777447         1.335208
 H        -0.795496        -3.125676         0.025533
 H        -2.682726        -3.323129         0.184549
 H        -2.680713        -0.635839        -1.018446
 H         1.329017         1.278575        -0.748605
 H         1.678773         0.985210         1.007733
 H         2.006456        -1.167297        -1.225075
 H         2.438602        -1.266568         0.525349
 H         0.190206        -1.051574         2.163873
 H        -0.721437         0.403420         1.601625
