19
Iteration:  3485charge 0 multiplicity 1
 O        -2.726429        -0.724439         1.561372
 C        -1.754035        -1.299831         0.859634
 C        -2.218434        -2.470594        -0.204408
 C        -1.655926        -1.113279        -0.618299
 O        -0.330950        -1.275484        -0.963610
 C         0.401596        -0.633422         0.131602
 C         0.963650         0.790745         0.062218
 C         1.811412        -0.491440        -0.085865
 C        -0.243684        -1.267235         1.353383
 H        -2.719000        -1.107720         2.491965
 H        -1.493414        -3.286382        -0.226146
 H        -3.286525        -2.612943        -0.285593
 H        -2.239730        -0.303926        -1.205256
 H         0.778777         1.474802        -0.771466
 H         0.873149         1.225145         1.064329
 H         2.124841        -0.566839        -1.113421
 H         2.375809        -0.813932         0.781794
 H         0.257839        -2.150155         1.735495
 H        -0.209007        -0.645287         2.283086
