19
Iteration:  3767
 O        -2.941302        -0.862021         1.427699
 C        -1.773999        -1.390514         0.867748
 C        -1.929279        -2.673280         0.000960
 C        -1.800320        -1.220351        -0.596920
 O        -0.541091        -0.791718        -0.975528
 C         0.439736        -0.525170         0.162463
 C         1.445875         0.733475         0.081464
 C         1.854424        -0.755603        -0.171313
 C        -0.431628        -0.996477         1.346019
 H        -3.071613        -1.044606         2.407109
 H        -1.134853        -3.453409         0.092448
 H        -2.935830        -3.043489        -0.099903
 H        -2.704631        -0.806927        -1.146735
 H         1.238965         1.446275        -0.767156
 H         1.791167         1.124975         1.093881
 H         1.982940        -1.094225        -1.138435
 H         2.584449        -1.412397         0.420214
 H         0.093648        -1.798248         1.886729
 H        -0.595883        -0.114712         2.027900
