19
Iteration:  4328charge 0 multiplicity 1
 O        -2.965696        -1.241521         1.619106
 C        -1.805299        -1.388490         0.821516
 C        -1.572580        -2.585879        -0.006544
 C        -1.741458        -1.170190        -0.635792
 O        -0.578969        -0.477060        -1.045063
 C         0.293389        -0.335107         0.016853
 C         1.711399         0.311328        -0.044660
 C         1.502963        -1.159458         0.075207
 C        -0.581652        -0.370742         1.325167
 H        -2.798624        -1.900856         2.308302
 H        -0.580943        -3.033235         0.035948
 H        -2.458007        -3.208118        -0.257358
 H        -2.640407        -0.718794        -1.270646
 H         2.137546         0.949789        -0.806586
 H         1.961458         0.741182         0.885763
 H         1.699783        -1.562299        -0.978117
 H         1.997003        -1.732959         0.948974
 H         0.028699        -0.803011         2.098367
 H        -1.132938         0.559071         1.529324
