19
Iteration:  4927
 O        -2.808314        -0.847188         1.680776
 C        -1.781096        -1.311940         0.843380
 C        -1.995435        -2.472729         0.070528
 C        -1.713762        -1.129958        -0.682139
 O        -0.356145        -0.906753        -1.105326
 C         0.393749        -0.676374         0.098194
 C         1.098460         0.648012        -0.049616
 C         1.858687        -0.732746         0.029769
 C        -0.353631        -1.096605         1.316029
 H        -3.646690        -0.658340         1.190363
 H        -1.306103        -3.316180         0.073620
 H        -3.012996        -2.818281        -0.068878
 H        -2.444318        -0.667391        -1.361793
 H         0.844385         0.965249        -0.989897
 H         1.201257         1.400660         0.737482
 H         2.213014        -1.109249        -0.877208
 H         2.222895        -0.782884         1.035643
 H         0.050640        -2.041641         1.815751
 H        -0.371348        -0.240469         2.030037
