19
Iteration:  3658charge 0 multiplicity 1
 O        -2.839395        -0.822177         1.553381
 C        -1.769323        -1.445363         0.885918
 C        -2.097627        -2.535812        -0.051207
 C        -1.709285        -1.121104        -0.669571
 O        -0.366196        -0.960285        -1.049012
 C         0.426074        -0.629792         0.191507
 C         1.206285         0.750929        -0.032674
 C         1.918411        -0.665235        -0.089626
 C        -0.413412        -1.120706         1.408504
 H        -3.301618        -1.416121         2.123950
 H        -1.463574        -3.344678        -0.396462
 H        -3.160589        -2.832781         0.008866
 H        -2.566647        -0.381006        -1.086497
 H         0.596637         1.345468        -0.745868
 H         1.373277         1.506390         0.821512
 H         2.306968        -0.913981        -1.097831
 H         2.462301        -0.825252         0.808466
 H         0.033201        -1.854024         2.095226
 H        -0.521582        -0.162444         1.982995
