19
Iteration:  2363
 O        -2.937045        -1.011676         1.520373
 C        -1.754725        -1.301720         0.844353
 C        -1.966869        -2.529045         0.104030
 C        -1.777951        -1.172545        -0.700722
 O        -0.455201        -0.757015        -1.043583
 C         0.366001        -0.517885         0.077580
 C         1.374730         0.655065         0.083123
 C         1.777990        -0.881109        -0.117768
 C        -0.321848        -0.915281         1.390029
 H        -3.096012        -1.473833         2.371941
 H        -1.309582        -3.355650        -0.023766
 H        -2.982862        -2.885713        -0.074370
 H        -2.635417        -0.749690        -1.463673
 H         1.419643         1.333627        -0.760277
 H         1.605310         1.128238         1.023698
 H         2.098735        -1.235530        -1.090055
 H         2.236305        -1.424554         0.629145
 H         0.212561        -1.683767         1.958311
 H        -0.450501         0.003866         1.931023
