19
Iteration:  3540
 O        -2.760387        -0.645932         1.628913
 C        -1.782556        -1.302123         0.863482
 C        -2.087693        -2.492385        -0.043581
 C        -1.681333        -1.184190        -0.659442
 O        -0.293579        -1.083951        -1.035430
 C         0.415696        -0.657103         0.166664
 C         0.923006         0.725912         0.060461
 C         1.853512        -0.504871        -0.044364
 C        -0.304973        -1.342351         1.282930
 H        -3.480795        -1.271768         1.852578
 H        -1.439664        -3.344098        -0.249554
 H        -3.137990        -2.813312        -0.127065
 H        -2.265665        -0.477660        -1.302759
 H         0.734083         1.281387        -0.899251
 H         1.084220         1.424785         0.900069
 H         2.129787        -0.755305        -1.111374
 H         2.481861        -0.796813         0.739691
 H         0.024348        -2.355209         1.314905
 H        -0.091959        -0.723859         2.181563
