19
Iteration:  1594charge 0 multiplicity 1
 O        -2.906834        -0.811108         1.619926
 C        -1.854591        -1.364944         0.861859
 C        -1.839080        -2.648030         0.025463
 C        -1.739355        -1.201027        -0.613110
 O        -0.479146        -0.767828        -1.032596
 C         0.353435        -0.525317         0.067862
 C         1.404402         0.633829         0.036428
 C         1.771890        -0.753977        -0.122870
 C        -0.393969        -1.005437         1.297348
 H        -3.339570        -1.564873         2.069612
 H        -0.887123        -3.230623        -0.025999
 H        -2.825719        -3.300359        -0.143390
 H        -2.596957        -0.962700        -1.186808
 H         1.373395         1.187983        -0.891270
 H         1.530967         1.331920         0.905651
 H         1.898206        -1.075364        -1.130010
 H         2.251700        -1.320829         0.781289
 H         0.064806        -1.807296         1.826457
 H        -0.535388        -0.201317         2.062848
