19
Iteration:  2960charge 0 multiplicity 1
 O        -2.947656        -1.190736         1.601154
 C        -1.747444        -1.372254         0.858858
 C        -1.565799        -2.541926        -0.066698
 C        -1.725332        -1.128059        -0.660112
 O        -0.582239        -0.435251        -1.070305
 C         0.280356        -0.460292         0.094100
 C         1.541897         0.347170         0.001617
 C         1.558000        -1.167063        -0.034554
 C        -0.492700        -0.465867         1.377277
 H        -2.870057        -1.669737         2.429016
 H        -0.613091        -3.012397         0.070733
 H        -2.343259        -3.308559        -0.010834
 H        -2.577621        -0.993225        -1.310282
 H         1.672187         0.924187        -0.916892
 H         1.896396         0.878316         0.900048
 H         1.373234        -1.752263        -0.926651
 H         2.069224        -1.617608         0.774166
 H        -0.042011        -0.938566         2.245550
 H        -1.088953         0.380353         1.701433
