19
Iteration:   219
 O        -2.979977        -0.941882         1.553436
 C        -1.784594        -1.391161         0.853711
 C        -1.776949        -2.647064         0.033515
 C        -1.743173        -1.161331        -0.591236
 O        -0.476252        -0.728855        -1.013272
 C         0.372996        -0.463959         0.154093
 C         1.284761         0.631684        -0.196936
 C         1.790416        -0.849966        -0.075039
 C        -0.404899        -0.913550         1.381235
 H        -2.911368        -1.233401         2.466901
 H        -0.708534        -3.015998         0.008819
 H        -2.632429        -3.402101         0.198253
 H        -2.645498        -0.612430        -0.899203
 H         0.973880         1.066564        -1.171794
 H         1.584534         1.289896         0.664907
 H         1.930593        -1.521556        -1.022712
 H         2.424340        -1.078908         0.735526
 H        -0.032439        -1.800284         1.913799
 H        -0.360582        -0.006853         2.046746
