19
Iteration:   823charge 0 multiplicity 1
 O        -2.882651        -0.834874         1.546554
 C        -1.765430        -1.309066         0.882788
 C        -1.844777        -2.580175         0.034201
 C        -1.716137        -1.241330        -0.638406
 O        -0.439257        -0.768765        -1.111740
 C         0.340384        -0.563927         0.145052
 C         1.157046         0.643108         0.068329
 C         1.721891        -0.752188        -0.127901
 C        -0.348192        -1.093118         1.343287
 H        -2.645083        -1.069592         2.486743
 H        -0.912046        -3.064658        -0.031541
 H        -2.765981        -3.182193         0.032638
 H        -2.521446        -0.736225        -1.261602
 H         0.940678         1.203389        -0.794452
 H         1.534311         1.218929         0.923610
 H         2.064609        -1.122519        -1.057706
 H         2.420617        -1.106708         0.679295
 H         0.033390        -2.001841         1.776180
 H        -0.349637        -0.311069         2.096660
