19
Iteration:  4793
 O        -2.818597        -0.702276         1.450057
 C        -1.772430        -1.373406         0.840678
 C        -2.008695        -2.711991         0.046482
 C        -1.705891        -1.238301        -0.587086
 O        -0.475854        -0.779419        -1.044649
 C         0.399807        -0.614685         0.061071
 C         1.215665         0.671908         0.051868
 C         1.832887        -0.693842        -0.060320
 C        -0.379442        -1.089926         1.403371
 H        -2.729043        -0.740393         2.442765
 H        -1.214131        -3.467215        -0.125952
 H        -3.043328        -2.939036        -0.222090
 H        -2.519924        -0.753785        -1.106441
 H         1.074567         1.197944        -0.931291
 H         1.266652         1.066156         1.009596
 H         2.325956        -1.000846        -1.062434
 H         2.362579        -1.208591         0.754106
 H         0.064834        -2.048076         1.820741
 H        -0.666896        -0.384610         2.157124
