19
Iteration:   293charge 0 multiplicity 1
 O        -2.856155        -0.958015         1.804568
 C        -1.782399        -1.267485         0.788227
 C        -1.855571        -2.514627         0.048808
 C        -1.703688        -1.331137        -0.767051
 O        -0.398945        -0.930498        -1.054892
 C         0.350311        -0.566231         0.090845
 C         1.265189         0.657349         0.061237
 C         1.798523        -0.772972        -0.212205
 C        -0.497191        -0.743196         1.337435
 H        -3.497619        -1.705319         1.791557
 H        -1.043647        -3.132845         0.209939
 H        -2.882184        -2.820774         0.185017
 H        -2.487154        -0.826073        -1.413888
 H         1.183242         1.416584        -0.753086
 H         1.373879         0.976242         1.159275
 H         1.912374        -1.129288        -1.340750
 H         2.544167        -1.148339         0.391163
 H        -0.023423        -1.568646         1.754606
 H        -0.702834         0.017218         2.158514
