19
Iteration:  1742charge 0 multiplicity 1
 O        -2.945967        -1.157803         1.540171
 C        -1.731468        -1.346515         0.861731
 C        -1.398079        -2.506282         0.060456
 C        -1.723153        -1.172604        -0.642171
 O        -0.617383        -0.495895        -1.046131
 C         0.234363        -0.402023         0.158654
 C         1.560001         0.336089        -0.006443
 C         1.460696        -1.199883        -0.186517
 C        -0.601627        -0.454661         1.385539
 H        -2.995938        -1.696341         2.380234
 H        -0.348109        -2.817671         0.014905
 H        -2.032840        -3.439459         0.138913
 H        -2.501246        -0.893341        -1.211798
 H         1.908046         0.970156        -0.831031
 H         2.045489         0.577580         0.972624
 H         1.440775        -1.503091        -1.203649
 H         2.111673        -1.703055         0.577328
 H        -0.034414        -1.131530         2.140283
 H        -1.011446         0.461715         1.838739
