19
Iteration:  3328
 O        -2.868814        -0.814113         1.582491
 C        -1.774891        -1.370850         0.868889
 C        -2.132006        -2.556264        -0.122590
 C        -1.704910        -1.068019        -0.564721
 O        -0.391626        -1.089096        -1.050166
 C         0.377376        -0.512529         0.091829
 C         1.128729         0.741915        -0.058120
 C         1.856454        -0.664123         0.042593
 C        -0.287356        -1.078805         1.390441
 H        -2.896630        -1.422952         2.363912
 H        -1.330479        -3.336817        -0.395185
 H        -3.126801        -2.961699        -0.473331
 H        -2.347357        -0.406557        -1.147329
 H         1.226815         1.221447        -1.035680
 H         1.349425         1.364106         0.868685
 H         2.336099        -1.106760        -0.929587
 H         2.479072        -0.871194         0.954497
 H         0.209209        -2.051529         1.545076
 H        -0.105813        -0.469038         2.254366
