19
Iteration:  3781
 O        -2.999393        -0.859180         1.486502
 C        -1.847582        -1.339136         0.837573
 C        -1.854734        -2.606097         0.000201
 C        -1.766210        -1.256862        -0.634384
 O        -0.448456        -0.804576        -0.988845
 C         0.317642        -0.474961         0.123757
 C         1.395959         0.589218         0.124179
 C         1.801248        -0.763877        -0.236117
 C        -0.363430        -0.937417         1.436420
 H        -2.956289        -1.349548         2.291800
 H        -0.966588        -3.173065        -0.248452
 H        -2.728765        -3.282451         0.133044
 H        -2.461911        -0.830308        -1.181033
 H         1.523862         1.205846        -0.816570
 H         1.753648         1.104818         0.990554
 H         2.066394        -0.923053        -1.330106
 H         2.271985        -1.248086         0.559166
 H         0.066985        -1.834970         1.855223
 H        -0.416522        -0.169131         2.262655
