19
Iteration:   525
 O        -2.913749        -1.465841         1.729248
 C        -1.719191        -1.322841         0.869459
 C        -1.500101        -2.536167         0.164876
 C        -1.750834        -1.154092        -0.650671
 O        -0.604099        -0.464736        -1.079472
 C         0.241277        -0.365307         0.021443
 C         1.651110         0.328818        -0.033755
 C         1.530027        -1.143553        -0.139763
 C        -0.605847        -0.304720         1.280805
 H        -3.392082        -0.643320         1.451410
 H        -0.583012        -3.180690         0.256347
 H        -2.485191        -3.186144         0.173172
 H        -2.583268        -1.044723        -1.353435
 H         2.207480         0.887256        -0.775001
 H         1.751145         0.671326         0.980462
 H         1.706297        -1.545510        -1.252071
 H         1.963507        -1.774213         0.626549
 H        -0.132840        -0.664145         2.164117
 H        -1.136977         0.744752         1.489234
