19
Iteration:  2083
 O        -2.908344        -0.967792         1.546023
 C        -1.738540        -1.342033         0.825864
 C        -1.549524        -2.605658        -0.017798
 C        -1.731599        -1.269878        -0.636755
 O        -0.588595        -0.402893        -0.986625
 C         0.273506        -0.533417         0.139404
 C         1.372922         0.446333         0.043602
 C         1.656979        -1.110800        -0.157317
 C        -0.509448        -0.698535         1.415942
 H        -2.959288        -1.548721         2.303966
 H        -0.595443        -3.061139        -0.113370
 H        -2.382974        -3.235525        -0.111358
 H        -2.611585        -1.170399        -1.323139
 H         1.321392         0.847855        -0.942355
 H         1.606767         1.013710         0.859951
 H         2.016926        -1.360690        -1.171355
 H         2.221131        -1.669465         0.521656
 H        -0.014946        -1.376012         2.137375
 H        -0.759106         0.279409         1.835877
