19
Iteration:  2115charge 0 multiplicity 1
 O        -3.014676        -1.217972         1.618297
 C        -1.788140        -1.335030         0.888016
 C        -1.594816        -2.624554         0.009517
 C        -1.793870        -1.208161        -0.592202
 O        -0.643951        -0.398687        -1.088693
 C         0.341220        -0.339293         0.013866
 C         1.670876         0.400209         0.022400
 C         1.618001        -1.147560        -0.062032
 C        -0.519435        -0.526609         1.303158
 H        -2.822713        -1.733611         2.444623
 H        -0.673674        -3.160637        -0.076696
 H        -2.510608        -3.111101        -0.113539
 H        -2.653607        -1.217741        -1.352895
 H         1.973711         1.000618        -0.780578
 H         1.992529         0.871658         0.883942
 H         2.150013        -1.629783        -0.908870
 H         1.880658        -1.610911         0.820680
 H         0.051131        -1.068713         2.091889
 H        -0.879128         0.315761         1.821723
