19
Iteration:  3177charge 0 multiplicity 1
 O        -2.963648        -1.007809         1.656469
 C        -1.852189        -1.223226         0.841527
 C        -1.874230        -2.570676        -0.058425
 C        -1.713698        -1.060357        -0.621508
 O        -0.449340        -0.865443        -1.073673
 C         0.355464        -0.546591         0.019315
 C         1.314744         0.591401        -0.012565
 C         1.769623        -0.822019        -0.023296
 C        -0.274403        -0.873078         1.356740
 H        -3.118234        -1.846869         2.159263
 H        -0.882643        -3.074863         0.130583
 H        -2.884784        -2.985965        -0.135637
 H        -2.620965        -0.741917        -1.156546
 H         1.378494         1.173326        -0.922077
 H         1.379866         1.416686         0.793403
 H         2.081098        -1.282094        -0.918359
 H         2.005712        -1.373138         0.958634
 H         0.129179        -1.775374         1.936982
 H        -0.373760        -0.075517         2.104134
