19
Iteration:  2954charge 0 multiplicity 1
 O        -2.952221        -1.170738         1.594885
 C        -1.775157        -1.346902         0.863301
 C        -1.580441        -2.542137        -0.021938
 C        -1.672705        -1.160610        -0.640613
 O        -0.553894        -0.446713        -1.087603
 C         0.263228        -0.427506         0.141367
 C         1.521460         0.402422        -0.010042
 C         1.540288        -1.190340        -0.061924
 C        -0.525460        -0.544863         1.390243
 H        -2.711077        -1.685431         2.416016
 H        -0.595408        -3.085888         0.137812
 H        -2.444773        -3.246891        -0.263826
 H        -2.483634        -0.908999        -1.322289
 H         1.674024         0.914478        -1.019812
 H         1.923457         0.871099         0.861517
 H         1.585729        -1.539583        -1.155796
 H         2.112443        -1.785313         0.710636
 H        -0.007215        -0.968337         2.266001
 H        -1.028312         0.447789         1.628795
