19
Iteration:   403
 O        -2.840713        -1.012135         1.732897
 C        -1.823730        -1.301552         0.896935
 C        -1.729330        -2.510660         0.089121
 C        -1.792797        -1.254965        -0.651559
 O        -0.512336        -0.873224        -1.094949
 C         0.371285        -0.621369        -0.018753
 C         1.315111         0.623253         0.050973
 C         1.877149        -0.844911        -0.190012
 C        -0.551924        -0.697319         1.348146
 H        -3.684903        -1.428467         1.557807
 H        -0.828895        -3.023425        -0.187840
 H        -2.572771        -3.128605         0.220349
 H        -2.608935        -0.939015        -1.281975
 H         1.418670         1.402590        -0.758698
 H         1.335528         1.091614         1.097209
 H         2.189382        -0.929414        -1.193909
 H         2.531509        -1.474483         0.554599
 H        -0.033120        -1.097567         2.181913
 H        -0.894362         0.380323         1.610620
