19
Iteration:  2482charge 0 multiplicity 1
 O        -2.890673        -0.987509         1.607903
 C        -1.791789        -1.328798         0.876753
 C        -1.814198        -2.528314        -0.040823
 C        -1.783699        -1.155993        -0.604683
 O        -0.485112        -0.685692        -1.095985
 C         0.331727        -0.614231         0.043891
 C         1.313067         0.498808         0.047501
 C         1.849868        -0.879543        -0.079266
 C        -0.434383        -0.791221         1.411991
 H        -3.086375        -1.689932         2.236609
 H        -0.949492        -3.185554        -0.077187
 H        -2.668345        -3.097845        -0.189603
 H        -2.566754        -0.602012        -1.253197
 H         1.213180         1.071630        -0.912322
 H         1.437429         1.108229         0.885741
 H         2.120574        -1.224326        -1.046418
 H         2.324565        -1.418019         0.659386
 H         0.038848        -1.402927         2.135316
 H        -0.708152         0.211783         1.807088
