19
Iteration:   203
 O        -3.014188        -0.956041         1.621092
 C        -1.857599        -1.338532         0.933300
 C        -1.725753        -2.595438         0.029898
 C        -1.673009        -1.256184        -0.608362
 O        -0.451940        -0.743041        -1.008381
 C         0.358779        -0.513660         0.140778
 C         1.353373         0.615197        -0.116425
 C         1.777142        -0.816259        -0.253783
 C        -0.497254        -0.844116         1.424599
 H        -3.084946        -1.431717         2.450916
 H        -0.902228        -3.278616         0.074756
 H        -2.629397        -2.975055        -0.304025
 H        -2.421388        -1.098342        -1.384319
 H         1.236770         1.147247        -1.041058
 H         1.828219         1.119098         0.693293
 H         1.955320        -1.215319        -1.188803
 H         2.522031        -1.170038         0.517897
 H         0.116059        -1.508580         2.050530
 H        -0.806491        -0.006204         2.031753
