19
Iteration:  1294
 O        -2.659485        -0.685222         1.701375
 C        -1.680248        -1.290223         0.853462
 C        -2.095314        -2.407239        -0.093731
 C        -1.742915        -1.173882        -0.742331
 O        -0.318714        -1.215157        -1.057112
 C         0.394917        -0.680168         0.052383
 C         0.775641         0.759750         0.056960
 C         1.865730        -0.536258        -0.038472
 C        -0.188644        -1.223228         1.442581
 H        -3.467377        -1.241839         1.667307
 H        -1.468583        -3.227635        -0.322873
 H        -3.127868        -2.665462        -0.133413
 H        -2.395401        -0.443840        -1.400922
 H         0.529170         1.321364        -0.930575
 H         0.557513         1.251678         1.058819
 H         2.285893        -0.790881        -1.067853
 H         2.260315        -0.788924         0.893504
 H        -0.078409        -2.416660         1.557222
 H        -0.182330        -0.576415         2.307127
