19
Iteration:  3701
 O        -2.900069        -0.838440         1.736846
 C        -1.822872        -1.364270         0.884158
 C        -1.947464        -2.511728        -0.050725
 C        -1.740968        -1.125425        -0.689077
 O        -0.358079        -1.012473        -1.156649
 C         0.381702        -0.565484         0.040528
 C         1.190395         0.713504         0.068166
 C         1.861989        -0.716117        -0.041082
 C        -0.381106        -1.025044         1.308255
 H        -3.350448        -1.591702         2.089690
 H        -1.056985        -3.132474        -0.047972
 H        -2.962389        -2.899386         0.025115
 H        -2.457959        -0.458682        -1.348866
 H         1.323586         1.308334        -0.831090
 H         1.321195         1.428562         0.957183
 H         2.408208        -1.100468        -0.892946
 H         2.070339        -1.085996         0.956953
 H         0.112925        -1.940144         1.690900
 H        -0.584120        -0.375684         2.172979
