19
Iteration:  3208charge 0 multiplicity 1
 O        -2.867673        -0.845412         1.616973
 C        -1.792307        -1.339169         0.793787
 C        -1.976948        -2.635995        -0.099714
 C        -1.728976        -1.211542        -0.663572
 O        -0.464211        -0.771617        -1.047421
 C         0.371122        -0.600710         0.163822
 C         1.279431         0.614616         0.001499
 C         1.921876        -0.716621        -0.112047
 C        -0.428131        -0.949226         1.442758
 H        -3.039259        -1.279910         2.452482
 H        -1.242007        -3.467574         0.006045
 H        -2.896198        -3.213929        -0.197710
 H        -2.549805        -0.605421        -1.093843
 H         0.966646         1.018622        -0.961520
 H         1.428841         1.202313         0.931086
 H         2.188853        -1.134311        -1.046552
 H         2.465001        -1.339108         0.671823
 H         0.022039        -1.774455         2.057515
 H        -0.593250        -0.057857         2.046393
