19
Iteration:  4071charge 0 multiplicity 1
 O        -2.993719        -0.951765         1.572522
 C        -1.841300        -1.337448         0.848777
 C        -1.742802        -2.610266         0.022322
 C        -1.746055        -1.206578        -0.649426
 O        -0.539016        -0.586954        -1.033107
 C         0.327748        -0.575135         0.045919
 C         1.444862         0.531521         0.060743
 C         1.828809        -0.955687        -0.046450
 C        -0.478656        -0.780870         1.296230
 H        -3.016589        -1.428041         2.420359
 H        -0.810776        -3.262928         0.074671
 H        -2.683934        -3.207551        -0.006293
 H        -2.596960        -0.942914        -1.373737
 H         1.508911         1.086693        -0.865889
 H         1.712330         1.210133         1.023045
 H         2.054854        -1.351057        -1.010219
 H         2.288016        -1.534529         0.793732
 H         0.179343        -1.500005         1.852005
 H        -0.442329         0.177265         1.821773
