19
Iteration:  1284charge 0 multiplicity 1
 O        -2.693851        -0.665299         1.713811
 C        -1.722654        -1.301244         0.830839
 C        -2.104087        -2.420349        -0.088433
 C        -1.662571        -1.125355        -0.665042
 O        -0.281079        -1.221250        -1.072734
 C         0.388070        -0.733327         0.142732
 C         0.796462         0.731656         0.018968
 C         1.785231        -0.485237        -0.024611
 C        -0.256881        -1.266717         1.322162
 H        -3.512310        -1.228925         1.685772
 H        -1.328958        -3.086507        -0.344777
 H        -3.123049        -2.738259         0.076999
 H        -2.344713        -0.487287        -1.350240
 H         0.555354         1.377029        -0.863243
 H         0.831032         1.290717         0.971295
 H         2.203584        -0.762919        -1.009853
 H         2.516448        -0.656205         0.675995
 H         0.311724        -2.222427         1.602513
 H         0.010185        -0.695594         2.165772
