19
Iteration:   312charge 0 multiplicity 1
 O        -2.881717        -0.944511         1.658305
 C        -1.837153        -1.264362         0.890341
 C        -1.809925        -2.599949         0.100253
 C        -1.715031        -1.177149        -0.588207
 O        -0.422392        -0.892839        -1.102311
 C         0.351357        -0.571818         0.124778
 C         1.225655         0.644847        -0.011115
 C         1.801627        -0.757008        -0.218481
 C        -0.416555        -0.888607         1.391163
 H        -3.688769        -1.478251         1.428802
 H        -0.975939        -3.196293         0.043932
 H        -2.750414        -3.064562        -0.082828
 H        -2.381792        -0.824365        -1.398824
 H         1.077017         1.257608        -0.908412
 H         1.561591         1.133055         0.872961
 H         2.028095        -1.038377        -1.249969
 H         2.397050        -1.217407         0.494759
 H         0.091113        -1.529339         2.206058
 H        -0.498733         0.127156         1.741698
