19
Iteration:   375
 O        -2.790899        -0.936512         1.792826
 C        -1.866770        -1.339065         0.827704
 C        -1.846887        -2.643876         0.112943
 C        -1.655682        -1.300102        -0.679829
 O        -0.429616        -0.712098        -1.147627
 C         0.303756        -0.423233         0.033672
 C         1.272339         0.656731        -0.115507
 C         1.760656        -0.865972        -0.022261
 C        -0.462246        -0.874335         1.347289
 H        -3.709807        -1.278402         1.771241
 H        -0.888265        -3.284655         0.097281
 H        -2.848594        -3.167629        -0.034040
 H        -2.452500        -1.137274        -1.394134
 H         1.308272         1.246928        -1.019346
 H         1.439113         1.220502         0.730362
 H         1.960773        -1.415041        -0.949420
 H         2.338405        -1.151575         0.847548
 H         0.213006        -1.639127         1.829165
 H        -0.698354        -0.125513         2.054685
