19
Iteration:  2887
 O        -2.965418        -0.983045         1.485095
 C        -1.780860        -1.329351         0.894386
 C        -1.716343        -2.554566        -0.034144
 C        -1.716238        -1.166310        -0.641905
 O        -0.516185        -0.629918        -0.956937
 C         0.320403        -0.511743         0.105789
 C         1.369863         0.502981        -0.008651
 C         1.695079        -0.962818        -0.129734
 C        -0.399014        -0.807435         1.414746
 H        -3.256634        -1.446153         2.265716
 H        -0.876175        -3.303394        -0.037767
 H        -2.618863        -3.242262         0.189515
 H        -2.529193        -1.001167        -1.212835
 H         1.448058         1.254894        -0.827657
 H         1.654218         0.911945         0.971395
 H         1.793145        -1.235042        -1.219932
 H         2.195795        -1.589102         0.676491
 H         0.308226        -1.395707         1.946909
 H        -0.502415         0.217716         1.889699
