19
Iteration:   863
 O        -2.906207        -0.827381         1.527906
 C        -1.779349        -1.412460         0.877997
 C        -2.028491        -2.656617         0.084390
 C        -1.771490        -1.231065        -0.604146
 O        -0.438431        -0.850767        -1.071584
 C         0.424800        -0.641503         0.077462
 C         1.314545         0.703945         0.177701
 C         1.893473        -0.601091        -0.267306
 C        -0.410311        -1.011473         1.360384
 H        -3.501138        -1.285497         2.104008
 H        -1.167646        -3.298917         0.016627
 H        -3.020303        -3.269701         0.049601
 H        -2.635872        -0.692344        -1.003604
 H         1.027663         1.498406        -0.479587
 H         1.730517         1.073665         0.999278
 H         2.112695        -0.871797        -1.328770
 H         2.725594        -0.969606         0.309959
 H         0.206602        -1.690897         1.931698
 H        -0.490368        -0.036360         1.919564
