19
Iteration:  2377charge 0 multiplicity 1
 O        -3.012486        -0.877968         1.546283
 C        -1.801394        -1.306399         0.897164
 C        -1.886921        -2.615192        -0.081884
 C        -1.741436        -1.213825        -0.542217
 O        -0.522076        -0.760366        -1.068700
 C         0.377956        -0.537369         0.057668
 C         1.349688         0.561498         0.075383
 C         1.854964        -0.833034        -0.103318
 C        -0.317114        -0.872026         1.349092
 H        -3.045010        -1.587565         2.217995
 H        -0.929001        -3.163084        -0.160851
 H        -2.888040        -3.013287        -0.032229
 H        -2.615910        -0.706422        -1.032723
 H         1.376721         1.267399        -0.811368
 H         1.470518         1.045593         1.005254
 H         2.158903        -1.174527        -1.123357
 H         2.282033        -1.237872         0.855122
 H         0.170940        -1.840026         1.754903
 H        -0.273304        -0.169408         2.159098
