19
Iteration:  4252
 O        -3.084239        -0.969728         1.465842
 C        -1.806996        -1.320406         0.871220
 C        -1.673119        -2.614384         0.089020
 C        -1.676261        -1.212911        -0.572419
 O        -0.523513        -0.570161        -0.950409
 C         0.316872        -0.451353         0.150278
 C         1.541993         0.523187        -0.089863
 C         1.729826        -0.964945        -0.174698
 C        -0.484074        -0.843026         1.379220
 H        -3.453123        -1.686117         2.010701
 H        -0.817636        -3.277089         0.333063
 H        -2.569534        -3.200509        -0.153289
 H        -2.487896        -0.891802        -1.345218
 H         1.617717         1.011690        -0.997096
 H         1.890890         0.970642         0.853071
 H         1.772817        -1.392201        -1.196142
 H         2.290944        -1.358294         0.773269
 H         0.059824        -1.576536         1.998523
 H        -0.774916         0.062592         1.943801
