19
Iteration:  3065
 O        -3.036199        -1.151418         1.488649
 C        -1.829256        -1.296580         0.904982
 C        -1.440754        -2.571128         0.003166
 C        -1.682905        -1.222097        -0.531598
 O        -0.707602        -0.366675        -0.998552
 C         0.306446        -0.470549         0.027714
 C         1.565457         0.315025        -0.034616
 C         1.645703        -1.164842        -0.161104
 C        -0.486942        -0.492742         1.416562
 H        -3.083572        -1.769353         2.228058
 H        -0.584140        -3.022871         0.340846
 H        -2.230366        -3.164943        -0.334119
 H        -2.651240        -1.130587        -1.108229
 H         1.706381         1.028734        -0.792587
 H         1.925490         0.622644         0.938666
 H         1.888019        -1.730605        -1.050342
 H         1.957225        -1.765736         0.667436
 H         0.003977        -1.015742         2.301983
 H        -0.786389         0.492159         1.760625
