19
Iteration:  1850charge 0 multiplicity 1
 O        -2.991730        -1.116254         1.667846
 C        -1.804295        -1.370798         0.878564
 C        -1.679405        -2.629833        -0.035382
 C        -1.808494        -1.191504        -0.651347
 O        -0.578158        -0.502930        -1.126817
 C         0.342763        -0.383750         0.077344
 C         1.571211         0.432552         0.027517
 C         1.763221        -1.076958        -0.052925
 C        -0.537702        -0.582240         1.329877
 H        -3.016497        -1.888706         2.276105
 H        -0.647780        -3.102928         0.078407
 H        -2.599824        -3.230394         0.145183
 H        -2.740954        -0.914028        -1.108798
 H         1.778110         0.859554        -1.043683
 H         2.051694         0.923538         0.850022
 H         2.201809        -1.277927        -1.123285
 H         2.301452        -1.693386         0.666865
 H        -0.140250        -0.993294         2.316794
 H        -1.056878         0.269769         1.699458
