19
Iteration:   248charge 0 multiplicity 1
 O        -2.878180        -0.914112         1.579344
 C        -1.708686        -1.401334         0.943736
 C        -1.851897        -2.589774        -0.003372
 C        -1.749916        -1.242611        -0.590002
 O        -0.560542        -0.762054        -1.082264
 C         0.302080        -0.509777        -0.021858
 C         1.250437         0.578008        -0.103338
 C         1.856018        -0.752325         0.048847
 C        -0.355991        -0.901850         1.338945
 H        -3.079200        -1.506416         2.312619
 H        -1.173400        -3.289810        -0.198502
 H        -2.837215        -2.912557         0.123910
 H        -2.717269        -0.757286        -0.898958
 H         1.377660         1.003347        -1.123665
 H         1.350633         1.268617         0.731429
 H         2.409498        -1.123232        -0.789537
 H         2.240439        -1.083772         1.013103
 H         0.082441        -1.625660         1.967803
 H        -0.350531         0.087613         1.848048
