19
Iteration:  2610
 O        -2.972384        -1.209155         1.627712
 C        -1.781279        -1.354741         0.865506
 C        -1.396899        -2.588635         0.024105
 C        -1.654015        -1.187422        -0.634676
 O        -0.668097        -0.217019        -1.081692
 C         0.318152        -0.380771         0.088664
 C         1.583370         0.283098        -0.051876
 C         1.511087        -1.263259        -0.060379
 C        -0.602692        -0.485223         1.348973
 H        -2.856288        -1.798140         2.414812
 H        -0.489942        -3.183714         0.121248
 H        -2.313759        -3.087090        -0.247594
 H        -2.497593        -1.265586        -1.333352
 H         1.791313         0.542396        -1.045402
 H         1.877953         1.000035         0.769590
 H         1.784254        -1.795414        -0.938923
 H         1.684561        -1.886035         0.822002
 H        -0.155029        -0.954986         2.238541
 H        -1.128191         0.395438         1.797437
