19
Iteration:  1654charge 0 multiplicity 1
 O        -2.942263        -0.983583         1.621327
 C        -1.722178        -1.377036         0.888833
 C        -1.780639        -2.561769        -0.059739
 C        -1.735660        -1.076574        -0.563732
 O        -0.470927        -0.770143        -1.092285
 C         0.341618        -0.453270         0.122506
 C         1.327937         0.549413        -0.045702
 C         1.755622        -0.948406        -0.106597
 C        -0.513156        -0.800548         1.370548
 H        -2.937318        -1.597097         2.408386
 H        -0.790800        -2.878478        -0.253547
 H        -2.439966        -3.345030        -0.086136
 H        -2.575305        -0.659431        -1.144317
 H         1.409609         1.078035        -0.974631
 H         1.574536         1.014554         0.911604
 H         2.021092        -1.585797        -0.951464
 H         2.368338        -1.222339         0.719641
 H        -0.022080        -1.454291         2.169304
 H        -0.894059         0.136867         1.761585
