19
Iteration:  3056
 O        -3.033561        -1.161604         1.536549
 C        -1.783715        -1.325894         0.912129
 C        -1.463078        -2.573048         0.012783
 C        -1.661604        -1.211166        -0.569081
 O        -0.641285        -0.337190        -0.990148
 C         0.308114        -0.426098         0.134330
 C         1.572338         0.318519        -0.031019
 C         1.574207        -1.245296        -0.191531
 C        -0.594314        -0.488962         1.345059
 H        -2.926047        -1.883628         2.154278
 H        -0.493453        -2.957808         0.091224
 H        -2.213826        -3.303384        -0.223639
 H        -2.581750        -1.086264        -1.080005
 H         1.817147         0.960913        -0.929447
 H         1.989726         0.733831         0.827185
 H         1.826459        -1.783299        -1.129015
 H         2.040987        -1.544818         0.693966
 H         0.019846        -0.837842         2.255643
 H        -0.929157         0.523926         1.546600
