19
Iteration:   977charge 0 multiplicity 1
 O        -2.847834        -0.872068         1.572851
 C        -1.770743        -1.371591         0.876892
 C        -2.002721        -2.544325        -0.019846
 C        -1.759419        -1.155810        -0.644638
 O        -0.459462        -1.016366        -1.029407
 C         0.386114        -0.580810         0.115113
 C         1.246691         0.743870         0.122293
 C         1.878427        -0.646053        -0.196141
 C        -0.387517        -0.990641         1.366786
 H        -3.184171        -1.598363         2.133140
 H        -1.191165        -3.252030        -0.168084
 H        -3.003419        -2.951764         0.035855
 H        -2.495512        -0.789219        -1.315660
 H         1.173662         1.525189        -0.746397
 H         1.477618         1.305270         1.100239
 H         2.067726        -0.873629        -1.306825
 H         2.552531        -1.207845         0.474992
 H         0.142176        -1.788560         1.878181
 H        -0.520682        -0.207418         2.075462
