19
Iteration:  4433
 O        -3.004497        -1.069634         1.483746
 C        -1.792279        -1.342679         0.853756
 C        -1.504894        -2.576673         0.122084
 C        -1.699933        -1.242462        -0.643752
 O        -0.593965        -0.412803        -1.045595
 C         0.307020        -0.558212         0.091252
 C         1.490608         0.377219         0.095028
 C         1.624912        -1.112213        -0.188043
 C        -0.546890        -0.557336         1.362276
 H        -2.951328        -1.344647         2.423224
 H        -0.493237        -2.934621         0.178820
 H        -2.270529        -3.340239         0.031220
 H        -2.710649        -1.106107        -1.218633
 H         1.521581         0.910128        -0.862525
 H         1.809595         0.760020         1.114964
 H         1.864623        -1.443640        -1.196428
 H         2.157122        -1.707461         0.521707
 H         0.002304        -0.976939         2.211029
 H        -0.717341         0.465388         1.769241
