19
Iteration:  3506charge 0 multiplicity 1
 O        -2.773449        -0.726747         1.582676
 C        -1.741754        -1.396440         0.894633
 C        -2.263762        -2.444703        -0.066347
 C        -1.641549        -1.152158        -0.655582
 O        -0.259091        -1.169637        -1.035761
 C         0.455072        -0.707260         0.116336
 C         0.892666         0.703787         0.067221
 C         1.985717        -0.404820        -0.110116
 C        -0.359743        -1.251075         1.362986
 H        -3.122661        -1.190009         2.340437
 H        -1.750684        -3.123582        -0.696065
 H        -3.328561        -2.371078        -0.058346
 H        -2.303411        -0.302562        -1.048062
 H         0.570049         1.237955        -0.820783
 H         1.079795         1.287141         0.955834
 H         2.226576        -0.652009        -1.102221
 H         2.765946        -0.661285         0.605591
 H         0.011634        -2.106189         1.865759
 H        -0.343188        -0.551840         2.198657
