19
Iteration:   422
 O        -2.955185        -1.026346         1.625672
 C        -1.739672        -1.334226         0.923811
 C        -1.747254        -2.702752         0.110457
 C        -1.794675        -1.174878        -0.555271
 O        -0.539758        -0.801609        -1.102362
 C         0.339168        -0.545817         0.059911
 C         1.377033         0.554405         0.008644
 C         1.826835        -0.855536        -0.181359
 C        -0.449053        -0.589913         1.299895
 H        -3.442512        -1.787202         1.338741
 H        -0.839514        -3.139429         0.045632
 H        -2.666465        -3.258622         0.168261
 H        -2.663362        -0.623229        -0.996561
 H         1.294803         1.310340        -0.775022
 H         1.737566         1.017630         1.013785
 H         2.009408        -1.169277        -1.189359
 H         2.435891        -1.303015         0.569195
 H         0.224692        -1.041567         2.133879
 H        -0.733168         0.427609         1.628226
