19
Iteration:  3052charge 0 multiplicity 1
 O        -3.034378        -1.174983         1.568254
 C        -1.726352        -1.335042         0.879659
 C        -1.467594        -2.578155         0.037744
 C        -1.675012        -1.191263        -0.596966
 O        -0.599883        -0.329169        -0.980034
 C         0.289042        -0.407687         0.150206
 C         1.587510         0.326886        -0.050775
 C         1.548851        -1.261987        -0.175980
 C        -0.625709        -0.499083         1.330660
 H        -3.120403        -1.894231         2.264043
 H        -0.422141        -2.946727        -0.061180
 H        -2.211931        -3.352616        -0.101600
 H        -2.626641        -1.010460        -1.222565
 H         1.719603         0.827804        -0.946368
 H         2.077745         0.778473         0.875672
 H         1.686462        -1.681398        -1.152266
 H         2.111721        -1.618074         0.722434
 H        -0.032411        -0.796655         2.183331
 H        -1.023537         0.533660         1.435764
