19
Iteration:  1167charge 0 multiplicity 1
 O        -2.753149        -0.690594         1.631142
 C        -1.764013        -1.398087         0.840686
 C        -2.075397        -2.585471         0.085246
 C        -1.733127        -1.207482        -0.694862
 O        -0.365787        -0.994295        -1.095723
 C         0.419098        -0.594413         0.145638
 C         1.087438         0.714317         0.034719
 C         1.845026        -0.531207        -0.063562
 C        -0.374580        -1.224222         1.272503
 H        -3.301461        -1.353747         2.124003
 H        -1.352903        -3.449421         0.113708
 H        -3.199905        -2.733615        -0.087710
 H        -2.401350        -0.563565        -1.362683
 H         1.021402         1.290834        -0.866848
 H         1.132897         1.261980         0.918497
 H         2.168376        -0.590833        -1.137489
 H         2.465062        -0.901147         0.686617
 H         0.155143        -2.056337         1.684719
 H        -0.437437        -0.622611         2.216574
