19
Iteration:  2355
 O        -2.911887        -1.010847         1.546540
 C        -1.744689        -1.333776         0.830329
 C        -1.967914        -2.535972         0.067007
 C        -1.725077        -1.142759        -0.673980
 O        -0.434323        -0.754918        -1.077301
 C         0.347372        -0.518909         0.123906
 C         1.385970         0.628217         0.063524
 C         1.775493        -0.894875        -0.112497
 C        -0.466218        -0.920427         1.358256
 H        -2.803728        -1.568514         2.339507
 H        -1.212805        -3.333181         0.182349
 H        -3.036188        -2.609531         0.271132
 H        -2.562675        -0.802097        -1.387578
 H         1.492036         1.361998        -0.830027
 H         1.717743         1.129109         0.902882
 H         1.981257        -0.863410        -1.207980
 H         2.421150        -1.363144         0.670192
 H         0.098585        -1.660847         2.067290
 H        -0.627006        -0.012770         1.901031
