19
Iteration:  3501
 O        -2.781960        -0.708860         1.586812
 C        -1.717508        -1.455912         0.842842
 C        -2.227758        -2.416126        -0.083499
 C        -1.664928        -1.103514        -0.639153
 O        -0.242482        -1.214680        -1.006289
 C         0.410946        -0.709901         0.099602
 C         0.908279         0.718541         0.090455
 C         1.919741        -0.408302        -0.079846
 C        -0.355985        -1.218386         1.330919
 H        -3.024589        -1.168365         2.438348
 H        -1.694842        -3.281929        -0.596439
 H        -3.341491        -2.430819         0.084367
 H        -2.246780        -0.310394        -0.943480
 H         0.748507         1.253626        -0.863475
 H         1.087223         1.339455         0.981309
 H         2.180050        -0.751525        -1.154663
 H         2.873196        -0.622927         0.481396
 H         0.080910        -2.243490         1.691323
 H        -0.343410        -0.489915         2.158354
