19
Iteration:   417charge 0 multiplicity 1
 O        -2.945644        -1.016860         1.660992
 C        -1.721171        -1.346306         0.895977
 C        -1.775157        -2.680494         0.118337
 C        -1.824156        -1.133602        -0.547759
 O        -0.511506        -0.834635        -1.131541
 C         0.346747        -0.533068         0.053087
 C         1.334383         0.511577         0.046650
 C         1.863438        -0.818047        -0.192521
 C        -0.448866        -0.588935         1.301491
 H        -3.566391        -1.737246         1.361030
 H        -0.682911        -3.106252        -0.058963
 H        -2.624681        -3.455908         0.226384
 H        -2.686883        -0.738796        -1.072350
 H         1.449978         1.240794        -0.758199
 H         1.465064         0.892940         1.009675
 H         1.996476        -1.137171        -1.258353
 H         2.583171        -1.263291         0.552744
 H         0.002849        -1.040248         2.172582
 H        -0.736401         0.438977         1.555449
