19
Iteration:   628charge 0 multiplicity 1
 O        -3.034700        -1.216422         1.624636
 C        -1.851980        -1.311520         0.876444
 C        -1.587080        -2.538664         0.068777
 C        -1.725867        -1.168167        -0.644965
 O        -0.512413        -0.523807        -1.059853
 C         0.333397        -0.540191         0.123474
 C         1.473990         0.456091        -0.019589
 C         1.724959        -1.060354        -0.236201
 C        -0.536285        -0.562452         1.395342
 H        -3.001916        -1.429890         2.584916
 H        -0.661746        -3.100439         0.173972
 H        -2.470620        -3.101662         0.059041
 H        -2.602158        -1.001385        -1.286591
 H         1.289843         1.169817        -0.932956
 H         1.973418         1.026272         0.776952
 H         1.931406        -1.472043        -1.234215
 H         2.310425        -1.581171         0.450973
 H        -0.097999        -1.070948         2.341947
 H        -0.708645         0.514247         1.569484
