19
Iteration:  1703charge 0 multiplicity 1
 O        -2.976282        -1.132010         1.563204
 C        -1.782768        -1.379281         0.866581
 C        -1.653022        -2.579363         0.164311
 C        -1.750799        -1.169692        -0.665683
 O        -0.633603        -0.359382        -1.032384
 C         0.341630        -0.501802         0.059005
 C         1.528979         0.401969        -0.079308
 C         1.793165        -1.036523        -0.062835
 C        -0.559543        -0.647124         1.321754
 H        -3.058810        -1.856711         2.181560
 H        -0.764635        -3.318962         0.226109
 H        -2.520105        -3.304996         0.019364
 H        -2.751285        -0.982372        -1.202614
 H         1.529111         0.950843        -1.062898
 H         1.865791         0.728216         0.884257
 H         2.147148        -1.660526        -0.968307
 H         2.295196        -1.507907         0.772331
 H         0.015229        -1.196557         2.010340
 H        -0.830067         0.374933         1.699373
