19
Iteration:  4715charge 0 multiplicity 1
 O        -2.851796        -0.913743         1.644351
 C        -1.794376        -1.254809         0.843696
 C        -2.043238        -2.512421        -0.056296
 C        -1.718217        -1.146076        -0.642595
 O        -0.359820        -0.906576        -1.015249
 C         0.438647        -0.620513         0.109182
 C         1.150873         0.634627        -0.081660
 C         1.864671        -0.758535        -0.024743
 C        -0.356859        -0.945019         1.382111
 H        -3.575278        -1.597194         1.658983
 H        -1.496778        -3.432110        -0.081848
 H        -3.102531        -2.719264        -0.102656
 H        -2.315725        -0.714590        -1.361483
 H         1.067052         1.005570        -1.064604
 H         1.364391         1.348651         0.792640
 H         2.191920        -1.123387        -0.936200
 H         2.408385        -0.933846         0.869798
 H        -0.103364        -1.905793         2.004919
 H        -0.350263        -0.163810         2.103209
