19
Iteration:  4515
 O        -2.939851        -0.950420         1.577741
 C        -1.783944        -1.369034         0.872239
 C        -1.943985        -2.592102        -0.122677
 C        -1.753764        -1.213085        -0.605024
 O        -0.496466        -0.764859        -1.012783
 C         0.434218        -0.487801         0.111389
 C         1.392958         0.605964        -0.051832
 C         1.817807        -0.901920        -0.014377
 C        -0.398460        -0.803589         1.387087
 H        -3.079185        -1.610027         2.249735
 H        -1.105325        -3.238336        -0.393041
 H        -2.959671        -3.029434        -0.041925
 H        -2.574184        -0.748035        -1.059427
 H         1.340658         1.086929        -0.963550
 H         1.682645         1.319275         0.760636
 H         1.989772        -1.421901        -0.944749
 H         2.261338        -1.248556         0.942392
 H         0.145726        -1.322633         2.182243
 H        -0.708403         0.202134         1.607278
