19
Iteration:  3968
 O        -2.993973        -1.162490         1.496819
 C        -1.734403        -1.341565         0.858850
 C        -1.344902        -2.590110         0.088882
 C        -1.623909        -1.177071        -0.585175
 O        -0.635795        -0.302191        -1.004832
 C         0.224795        -0.450029         0.099334
 C         1.585915         0.245741        -0.067407
 C         1.487255        -1.209626        -0.123568
 C        -0.613440        -0.430729         1.387822
 H        -3.248666        -1.961941         1.963996
 H        -0.309273        -2.949428         0.204607
 H        -2.171828        -3.290591         0.005878
 H        -2.677496        -1.252983        -1.034788
 H         1.611352         0.827820        -0.983413
 H         2.053483         0.758669         0.716230
 H         1.602911        -1.672985        -1.084202
 H         1.781687        -1.804557         0.799119
 H        -0.218092        -0.954786         2.277175
 H        -0.939599         0.598130         1.656979
