19
Iteration:   195charge 0 multiplicity 1
 O        -2.987780        -0.980754         1.636175
 C        -1.889507        -1.334041         0.882837
 C        -1.757430        -2.632095         0.047276
 C        -1.659846        -1.280676        -0.657195
 O        -0.510171        -0.734948        -1.042583
 C         0.419909        -0.511348         0.139167
 C         1.401457         0.640212        -0.060259
 C         1.797039        -0.848985        -0.293977
 C        -0.474292        -0.757978         1.503644
 H        -3.228754        -1.601230         2.336086
 H        -1.004351        -3.300430         0.242424
 H        -2.684657        -3.028967        -0.295675
 H        -2.470652        -1.221436        -1.410864
 H         1.155908         1.222857        -0.980301
 H         1.615022         1.116049         0.903112
 H         1.946194        -1.080401        -1.309197
 H         2.473589        -1.395740         0.396238
 H        -0.118640        -1.431056         2.209055
 H        -0.575868         0.279671         1.976671
