19
Iteration:  3913
 O        -3.081335        -1.184898         1.574808
 C        -1.827952        -1.380650         0.877995
 C        -1.427128        -2.527499         0.056128
 C        -1.705260        -1.160971        -0.623125
 O        -0.636112        -0.368332        -1.020235
 C         0.300618        -0.411223         0.063158
 C         1.543912         0.337195        -0.073714
 C         1.680515        -1.210597        -0.063600
 C        -0.576759        -0.523683         1.329713
 H        -2.872789        -1.395676         2.482964
 H        -0.313326        -2.712027         0.099313
 H        -2.114785        -3.387737        -0.092437
 H        -2.713118        -1.227127        -1.256874
 H         1.836041         0.886470        -0.897377
 H         2.072626         0.718521         0.843348
 H         1.808877        -1.657303        -1.043660
 H         2.246605        -1.910486         0.643528
 H        -0.085073        -0.960690         2.230377
 H        -1.067859         0.443806         1.617403
