19
Iteration:  1087charge 0 multiplicity 1
 O        -2.842009        -0.880234         1.690965
 C        -1.763974        -1.281273         0.841329
 C        -1.976677        -2.502299        -0.070159
 C        -1.773844        -1.150672        -0.682102
 O        -0.363954        -1.004680        -1.039479
 C         0.390272        -0.585683         0.127527
 C         1.060308         0.669733         0.016713
 C         1.874286        -0.692670        -0.089278
 C        -0.385678        -1.034001         1.342120
 H        -2.524247        -1.170019         2.570364
 H        -1.190644        -3.204830        -0.195242
 H        -2.996530        -2.835437        -0.209793
 H        -2.445801        -0.691840        -1.424266
 H         0.910888         1.156317        -0.991730
 H         1.054737         1.249434         1.019200
 H         2.169801        -0.926859        -1.076827
 H         2.526465        -1.064750         0.720653
 H         0.186095        -1.853549         1.715061
 H        -0.300782        -0.177275         1.918953
