19
Iteration:  4029
 O        -2.906336        -1.135973         1.585825
 C        -1.725376        -1.317862         0.865761
 C        -1.694185        -2.570177        -0.063777
 C        -1.786759        -1.153066        -0.637402
 O        -0.518458        -0.577809        -1.027750
 C         0.331867        -0.460711         0.101470
 C         1.451905         0.406318        -0.063021
 C         1.615006        -1.091364         0.076627
 C        -0.458878        -0.528069         1.308394
 H        -3.042467        -1.752153         2.295713
 H        -0.769521        -3.162888        -0.342045
 H        -2.706691        -3.016981        -0.086284
 H        -2.588174        -0.831044        -1.430323
 H         1.488508         0.849148        -1.043908
 H         1.605639         1.085100         0.897240
 H         1.938613        -1.530811        -0.825228
 H         2.080378        -1.597237         0.944528
 H         0.082008        -1.022078         2.127806
 H        -0.905450         0.388884         1.777341
