19
Iteration:  1327charge 0 multiplicity 1
 O        -2.711075        -0.666233         1.701036
 C        -1.795158        -1.407806         0.927119
 C        -2.247702        -2.542028        -0.019459
 C        -1.736505        -1.234895        -0.683583
 O        -0.267569        -1.124771        -1.125623
 C         0.466322        -0.659564         0.038624
 C         1.007908         0.795022         0.055344
 C         1.928593        -0.420328        -0.019178
 C        -0.312744        -1.235511         1.252216
 H        -3.498716        -1.202550         1.998029
 H        -1.647713        -3.381308        -0.151601
 H        -3.289037        -2.796943        -0.177865
 H        -2.454871        -0.437573        -1.154983
 H         0.702900         1.476630        -0.792375
 H         0.895576         1.261129         1.069434
 H         2.281039        -0.940984        -0.956653
 H         2.579203        -0.574314         0.798320
 H        -0.040692        -2.297540         1.734160
 H        -0.387839        -0.587842         2.113701
