19
Iteration:   502
 O        -2.973344        -1.290598         1.562702
 C        -1.717906        -1.313205         0.923826
 C        -1.461800        -2.557299         0.074004
 C        -1.764094        -1.278138        -0.529278
 O        -0.663471        -0.449870        -1.101734
 C         0.279261        -0.402118         0.091923
 C         1.508968         0.386240        -0.027200
 C         1.601878        -1.175515        -0.122196
 C        -0.516908        -0.431629         1.305816
 H        -2.932693        -0.544447         2.164850
 H        -0.420774        -2.976217         0.028439
 H        -2.215675        -3.381494         0.063283
 H        -2.685859        -0.914794        -0.977433
 H         1.586868         0.923031        -1.046015
 H         1.857100         0.969582         0.829915
 H         1.853272        -1.665409        -1.168808
 H         2.004377        -1.745852         0.743933
 H         0.025287        -0.856736         2.162505
 H        -0.856988         0.701927         1.520279
