19
Iteration:  2767charge 0 multiplicity 1
 O        -3.025787        -0.964242         1.597235
 C        -1.873168        -1.386657         0.842113
 C        -1.810600        -2.559780         0.070326
 C        -1.696170        -1.270064        -0.649951
 O        -0.516970        -0.531875        -1.032221
 C         0.444793        -0.563221         0.153770
 C         1.428839         0.531549        -0.046147
 C         1.861267        -0.922515        -0.191334
 C        -0.509157        -0.843692         1.404741
 H        -3.000856        -1.476096         2.446113
 H        -0.980312        -3.302228        -0.003546
 H        -2.702805        -3.112429        -0.323011
 H        -2.487992        -0.920725        -1.283136
 H         1.375345         1.223784        -0.865171
 H         1.747918         1.006939         0.926548
 H         2.019954        -1.208502        -1.241478
 H         2.570488        -1.353307         0.589958
 H        -0.096126        -1.533032         2.177147
 H        -0.727578         0.198736         1.835299
