19
Iteration:  3824
 O        -2.900407        -0.965029         1.666606
 C        -1.789204        -1.312388         0.804825
 C        -1.815199        -2.607229         0.007628
 C        -1.763847        -1.190744        -0.720813
 O        -0.519177        -0.606968        -1.046185
 C         0.329282        -0.617009         0.081444
 C         1.355408         0.470151        -0.031025
 C         1.871683        -0.913291         0.004596
 C        -0.469138        -0.774227         1.371521
 H        -3.352935        -1.764923         1.924788
 H        -0.831639        -3.043418        -0.015835
 H        -2.733929        -3.205993        -0.198022
 H        -2.482390        -0.815710        -1.317869
 H         1.240292         1.149338        -0.925107
 H         1.348439         1.126238         0.834015
 H         2.393891        -1.070649        -1.002785
 H         2.283850        -1.248184         0.890758
 H         0.025183        -1.443538         2.061709
 H        -0.616704         0.214568         1.906188
