19
Iteration:  1134
 O        -2.890676        -0.778640         1.601617
 C        -1.742949        -1.397088         0.946590
 C        -2.054979        -2.548732        -0.072725
 C        -1.724412        -1.167412        -0.582656
 O        -0.382810        -1.059634        -0.961818
 C         0.359097        -0.564811         0.100242
 C         1.168095         0.749945        -0.048315
 C         1.849685        -0.570776        -0.139653
 C        -0.261865        -1.115259         1.350629
 H        -3.625421        -1.418230         1.814722
 H        -1.416064        -3.493855        -0.269656
 H        -3.143506        -2.787161        -0.191574
 H        -2.343948        -0.427327        -1.216715
 H         1.191544         1.416696        -0.887260
 H         1.257566         1.186442         0.929797
 H         2.263260        -0.831375        -1.119032
 H         2.487938        -0.906803         0.603365
 H         0.155353        -2.094223         1.496378
 H        -0.366551        -0.459252         2.262001
