19
Iteration:   239
 O        -2.879737        -0.937995         1.491245
 C        -1.641233        -1.358085         0.893683
 C        -1.811638        -2.559100         0.015254
 C        -1.820558        -1.228815        -0.551619
 O        -0.602324        -0.753382        -1.059096
 C         0.282667        -0.540098         0.045781
 C         1.256609         0.584562        -0.138476
 C         1.826742        -0.767577         0.032192
 C        -0.325206        -0.924597         1.447018
 H        -2.935401        -1.345818         2.362683
 H        -1.018099        -3.188835        -0.300168
 H        -2.875385        -2.881613         0.016943
 H        -2.726332        -0.928646        -1.151753
 H         1.414043         0.847751        -1.223074
 H         1.465948         1.441550         0.571180
 H         2.430961        -1.170280        -0.867540
 H         2.202516        -1.064471         0.972356
 H         0.176248        -1.705027         1.926814
 H        -0.445438        -0.011568         2.149975
