19
Iteration:   814
 O        -2.861699        -0.846975         1.582975
 C        -1.772676        -1.361085         0.772234
 C        -1.820165        -2.561225         0.044946
 C        -1.750401        -1.174756        -0.601282
 O        -0.499763        -0.764996        -1.096746
 C         0.312473        -0.571209         0.101935
 C         1.205800         0.601652        -0.030590
 C         1.875973        -0.709458        -0.054733
 C        -0.432768        -1.093971         1.351420
 H        -2.628687        -1.188921         2.493045
 H        -0.974098        -3.236356         0.107396
 H        -2.734887        -3.077700        -0.161079
 H        -2.765586        -0.799672        -0.951680
 H         0.955606         1.254432        -0.896996
 H         1.406903         1.325326         0.986769
 H         2.271323        -1.236251        -0.896968
 H         2.336928        -1.038485         0.973428
 H         0.071752        -2.065676         1.758446
 H        -0.387258        -0.294425         2.092032
