19
Iteration:  2138charge 0 multiplicity 1
 O        -2.968449        -1.324897         1.617943
 C        -1.752824        -1.271770         0.857979
 C        -1.499643        -2.485483        -0.013834
 C        -1.784666        -1.064106        -0.656136
 O        -0.596722        -0.517286        -1.051989
 C         0.288988        -0.434264         0.120516
 C         1.596542         0.346830        -0.047092
 C         1.554057        -1.195622        -0.050958
 C        -0.574242        -0.418206         1.345689
 H        -2.802629        -2.034399         2.262164
 H        -0.471074        -2.783065        -0.016486
 H        -2.242824        -3.228392         0.059819
 H        -2.757267        -0.765613        -1.278125
 H         1.934926         0.804985        -0.905894
 H         1.951695         0.934254         0.818085
 H         1.566541        -1.759886        -0.975632
 H         2.044770        -1.761705         0.753669
 H        -0.061400        -0.833957         2.205167
 H        -0.879277         0.584283         1.646995
