19
Iteration:  3564charge 0 multiplicity 1
 O        -2.645899        -0.634228         1.583952
 C        -1.781931        -1.344478         0.802176
 C        -2.068060        -2.588753        -0.036667
 C        -1.731989        -1.199310        -0.664100
 O        -0.408708        -1.082218        -1.092912
 C         0.361855        -0.612902         0.022730
 C         1.049011         0.757936         0.145950
 C         1.819080        -0.507864         0.010606
 C        -0.322513        -1.280171         1.347379
 H        -3.427960        -1.153835         1.921794
 H        -1.451903        -3.466381         0.198346
 H        -3.114350        -2.955908        -0.142641
 H        -2.463941        -0.621060        -1.172314
 H         1.034697         1.562317        -0.617301
 H         1.192309         1.274116         1.128915
 H         2.228830        -0.663472        -1.026357
 H         2.346524        -0.903284         0.906000
 H         0.111783        -2.275421         1.447425
 H        -0.285983        -0.622607         2.258147
