19
Iteration:  1265
 O        -2.684861        -0.659281         1.659517
 C        -1.808540        -1.387823         0.790664
 C        -2.180505        -2.482335        -0.006829
 C        -1.651031        -1.170963        -0.585676
 O        -0.295815        -1.143451        -1.017839
 C         0.444974        -0.712540         0.098934
 C         0.899245         0.745273         0.024957
 C         1.947656        -0.372029        -0.158123
 C        -0.362283        -1.332334         1.351512
 H        -3.439041        -1.303377         1.754495
 H        -1.534213        -3.362268         0.130108
 H        -3.249463        -2.482696        -0.451123
 H        -2.282530        -0.419774        -1.147277
 H         0.603909         1.197762        -0.879722
 H         0.837633         1.374775         0.858965
 H         2.449474        -0.504629        -1.099748
 H         2.536550        -0.611313         0.721867
 H        -0.136643        -2.321974         1.667962
 H        -0.360988        -0.770611         2.297498
