19
Iteration:  3661
 O        -2.826073        -0.833940         1.561728
 C        -1.762369        -1.462040         0.834686
 C        -2.128990        -2.525611        -0.042050
 C        -1.719758        -1.118011        -0.684921
 O        -0.375436        -0.946052        -1.053170
 C         0.445659        -0.619809         0.185512
 C         1.189597         0.742433        -0.017498
 C         1.946479        -0.661031        -0.105190
 C        -0.424564        -1.087017         1.431957
 H        -3.356889        -1.476867         2.123279
 H        -1.518809        -3.400177        -0.329747
 H        -3.169004        -2.867318         0.124442
 H        -2.497088        -0.519895        -1.015533
 H         0.642904         1.257655        -0.831037
 H         1.370295         1.454699         0.870823
 H         2.361650        -0.982338        -1.012669
 H         2.529120        -0.828361         0.895999
 H         0.026939        -1.847408         2.054751
 H        -0.515981        -0.136566         2.048434
