19
Iteration:   574
 O        -2.842838        -1.175284         1.693569
 C        -1.713482        -1.354058         0.827276
 C        -1.380131        -2.555632        -0.031281
 C        -1.692661        -1.178728        -0.578006
 O        -0.669393        -0.330369        -1.036313
 C         0.180826        -0.379587         0.056653
 C         1.468399         0.302126        -0.172932
 C         1.570047        -1.258543         0.079222
 C        -0.598089        -0.490729         1.352586
 H        -3.620934        -1.687523         1.408497
 H        -0.351565        -2.875009        -0.045396
 H        -1.996485        -3.344466        -0.189878
 H        -2.663847        -1.118745        -1.076197
 H         1.545325         0.541691        -1.310973
 H         1.845062         1.060051         0.513345
 H         1.738508        -1.772377        -0.801555
 H         1.957650        -1.677416         0.995719
 H         0.041274        -0.974568         2.163518
 H        -1.131656         0.340432         1.733269
