19
Iteration:  2379charge 0 multiplicity 1
 O        -3.014758        -0.861060         1.551355
 C        -1.796423        -1.312913         0.901727
 C        -1.868138        -2.619237        -0.101848
 C        -1.747870        -1.202230        -0.528539
 O        -0.526435        -0.760060        -1.072491
 C         0.368977        -0.542506         0.058332
 C         1.345773         0.555073         0.055813
 C         1.865521        -0.834549        -0.095734
 C        -0.339421        -0.888987         1.343784
 H        -3.079533        -1.589692         2.226565
 H        -0.901346        -3.163494        -0.140582
 H        -2.869553        -3.043998        -0.019781
 H        -2.542969        -0.756854        -0.950569
 H         1.383412         1.259004        -0.773213
 H         1.502878         1.098398         1.040978
 H         2.184173        -1.102988        -1.124623
 H         2.348440        -1.243501         0.872956
 H         0.146116        -1.833241         1.730969
 H        -0.271257        -0.130470         2.167510
