19
Iteration:  3590charge 0 multiplicity 1
 O        -2.763142        -0.658138         1.589059
 C        -1.782373        -1.390433         0.826675
 C        -2.145140        -2.603586         0.006502
 C        -1.688992        -1.270461        -0.642225
 O        -0.370276        -0.931038        -1.137342
 C         0.446029        -0.623273        -0.001390
 C         1.014808         0.693187         0.167150
 C         1.952051        -0.588295        -0.054786
 C        -0.338244        -1.160702         1.372286
 H        -3.220853        -1.239724         2.273697
 H        -1.642213        -3.593461         0.082661
 H        -3.183280        -2.785250        -0.202146
 H        -2.430054        -0.689656        -1.286962
 H         0.801554         1.365736        -0.626300
 H         0.802205         1.128757         1.115405
 H         2.429637        -0.533512        -1.006167
 H         2.549535        -0.944588         0.809062
 H         0.204855        -2.105766         1.666788
 H        -0.471486        -0.446136         2.150360
