19
Iteration:  3316charge 0 multiplicity 1
 O        -2.767114        -0.816332         1.585895
 C        -1.741120        -1.330234         0.843145
 C        -2.130489        -2.597593        -0.177465
 C        -1.741275        -1.164216        -0.620773
 O        -0.383255        -0.981730        -0.989371
 C         0.367072        -0.561096         0.127018
 C         1.171639         0.658890        -0.003924
 C         1.876752        -0.660175        -0.017576
 C        -0.370002        -1.029647         1.320836
 H        -3.028271        -1.388640         2.350364
 H        -1.415274        -3.486691        -0.093753
 H        -3.213057        -2.748482         0.104155
 H        -2.496348        -0.456583        -1.088462
 H         1.006661         1.159302        -0.958554
 H         1.111920         1.419580         0.869829
 H         2.447036        -0.930678        -0.942773
 H         2.374807        -0.835359         1.027541
 H         0.145102        -1.942014         1.635336
 H        -0.519007        -0.410419         2.192518
