19
Iteration:  2505charge 0 multiplicity 1
 O        -2.888686        -1.019527         1.672240
 C        -1.807211        -1.337017         0.803545
 C        -1.771036        -2.547126         0.011475
 C        -1.706907        -1.199058        -0.674169
 O        -0.484027        -0.593271        -1.042545
 C         0.351973        -0.422208         0.124064
 C         1.384723         0.595791        -0.096242
 C         1.685856        -1.043629        -0.017747
 C        -0.464207        -0.831690         1.354374
 H        -3.161810        -1.783505         2.212425
 H        -0.963081        -3.255101        -0.052994
 H        -2.709012        -3.048489        -0.104786
 H        -2.448534        -0.845013        -1.558804
 H         1.362601         1.194784        -0.964964
 H         1.773311         1.042213         0.829030
 H         1.787570        -1.552514        -0.924815
 H         2.210059        -1.418139         0.846230
 H        -0.012337        -1.657589         1.856051
 H        -0.763044        -0.035461         2.026679
