19
Iteration:  3404charge 0 multiplicity 1
 O        -2.706232        -0.620765         1.556792
 C        -1.793996        -1.336611         0.845002
 C        -2.060160        -2.603568         0.021219
 C        -1.765875        -1.194549        -0.625712
 O        -0.351842        -1.122366        -1.070614
 C         0.391004        -0.601568         0.083299
 C         1.063079         0.757838         0.204764
 C         1.820625        -0.507535        -0.121945
 C        -0.365325        -1.231454         1.314683
 H        -3.501624        -1.156132         1.793035
 H        -1.205359        -3.269119        -0.156785
 H        -2.999157        -2.984483        -0.408564
 H        -2.510243        -0.657642        -1.120927
 H         1.239694         1.516136        -0.590569
 H         1.176928         1.042653         1.241240
 H         2.364990        -0.703573        -1.129468
 H         2.460313        -1.019221         0.545886
 H         0.049328        -2.207124         1.490250
 H        -0.419650        -0.655695         2.204069
