19
Iteration:  4144charge 0 multiplicity 1
 O        -2.942092        -0.866937         1.528745
 C        -1.770531        -1.404203         0.906074
 C        -1.854446        -2.623733        -0.036710
 C        -1.724373        -1.213430        -0.600402
 O        -0.505761        -0.658300        -1.098933
 C         0.383882        -0.571038         0.187757
 C         1.356086         0.551866        -0.025574
 C         1.829934        -0.825273        -0.069747
 C        -0.451655        -0.867090         1.364338
 H        -3.295513        -1.492768         2.153980
 H        -1.062240        -3.392127        -0.056161
 H        -2.871815        -3.017600         0.026179
 H        -2.644706        -0.840313        -1.095692
 H         1.437373         1.051897        -0.897293
 H         1.706596         1.208431         0.801027
 H         2.179777        -1.319866        -1.008559
 H         2.372172        -1.429826         0.751492
 H         0.069661        -1.539798         2.109906
 H        -0.763265         0.024728         1.925269
