19
Iteration:   445
 O        -2.964755        -1.020290         1.577177
 C        -1.761794        -1.373128         0.925181
 C        -1.700910        -2.658368         0.127926
 C        -1.703233        -1.277741        -0.613533
 O        -0.535760        -0.588804        -1.026709
 C         0.318459        -0.385996         0.095837
 C         1.423772         0.529394        -0.187713
 C         1.715519        -0.934257        -0.145165
 C        -0.465253        -0.715964         1.416780
 H        -3.315103        -1.872574         1.953170
 H        -0.821777        -3.211685         0.132102
 H        -2.641388        -3.069010         0.018813
 H        -2.494298        -1.246216        -1.361863
 H         1.684180         0.977282        -1.189188
 H         1.625638         1.247927         0.691652
 H         1.851741        -1.391981        -1.059874
 H         2.252352        -1.376864         0.747938
 H        -0.063534        -1.365145         2.239216
 H        -0.800975         0.261525         1.891092
