19
Iteration:  2583
 O        -2.993439        -1.214760         1.599851
 C        -1.816690        -1.304071         0.847703
 C        -1.485669        -2.504126         0.030441
 C        -1.760170        -1.225762        -0.633741
 O        -0.585478        -0.423275        -1.020463
 C         0.337684        -0.375136         0.134094
 C         1.633243         0.349823         0.008429
 C         1.527030        -1.156197        -0.176547
 C        -0.573205        -0.532688         1.329845
 H        -2.845488        -1.563626         2.519191
 H        -0.410776        -2.785468        -0.109320
 H        -2.180864        -3.378207         0.002142
 H        -2.603327        -1.069131        -1.425960
 H         1.881495         1.049457        -0.835839
 H         1.912491         0.666003         1.012655
 H         1.463774        -1.755794        -1.125099
 H         1.954545        -1.802999         0.616370
 H        -0.082127        -1.140226         2.127252
 H        -0.993347         0.383494         1.765057
