19
Iteration:  4516charge 0 multiplicity 1
 O        -2.950539        -0.945550         1.589580
 C        -1.785834        -1.370187         0.862203
 C        -1.936237        -2.587873        -0.126231
 C        -1.750276        -1.207394        -0.600529
 O        -0.497024        -0.774079        -1.013522
 C         0.443755        -0.487109         0.107144
 C         1.386735         0.597313        -0.050138
 C         1.821377        -0.898108        -0.011683
 C        -0.395796        -0.805691         1.382572
 H        -3.075592        -1.607209         2.266481
 H        -1.103621        -3.223259        -0.407829
 H        -2.938843        -3.051407        -0.054527
 H        -2.616193        -0.734618        -1.076100
 H         1.365612         1.097199        -0.994813
 H         1.664846         1.344932         0.773427
 H         1.988881        -1.407250        -0.939715
 H         2.252323        -1.245476         0.913383
 H         0.144498        -1.330185         2.221395
 H        -0.735172         0.185732         1.622177
