19
Iteration:  4692charge 0 multiplicity 1
 O        -2.759860        -0.815973         1.614261
 C        -1.714572        -1.433979         0.876993
 C        -2.068810        -2.533183        -0.096625
 C        -1.742479        -1.161278        -0.660684
 O        -0.390270        -0.983942        -1.112082
 C         0.359991        -0.490031         0.139959
 C         1.240966         0.651401        -0.037982
 C         1.777154        -0.747209         0.023651
 C        -0.398549        -0.959538         1.396661
 H        -3.314623        -1.497550         1.989489
 H        -1.296916        -3.233798        -0.389334
 H        -3.055960        -2.983480        -0.167209
 H        -2.439646        -0.325831        -0.952413
 H         1.146739         1.043322        -1.093330
 H         1.404903         1.367469         0.860090
 H         2.018837        -1.229589        -0.852974
 H         2.207394        -1.025790         0.956144
 H         0.151440        -1.676177         2.137870
 H        -0.664111        -0.151331         2.071246
