19
Iteration:   842
 O        -2.928135        -0.768172         1.536973
 C        -1.783090        -1.389504         0.854997
 C        -1.834455        -2.627062        -0.010952
 C        -1.722263        -1.232734        -0.620369
 O        -0.464614        -0.867170        -0.989580
 C         0.389362        -0.550421         0.095095
 C         1.192850         0.691518         0.119641
 C         1.811933        -0.719463        -0.273203
 C        -0.357244        -1.013687         1.439042
 H        -3.063574        -1.248496         2.414074
 H        -1.164306        -3.466134         0.076526
 H        -2.918926        -2.878498        -0.236930
 H        -2.555092        -0.932116        -1.280124
 H         1.288759         1.468952        -0.567474
 H         1.231539         1.041387         1.034658
 H         1.999192        -0.826460        -1.345480
 H         2.515206        -1.381196         0.188817
 H         0.124306        -1.885422         1.794433
 H        -0.348131        -0.220726         2.212875
