19
Iteration:  1454
 O        -2.828266        -0.834415         1.673442
 C        -1.857437        -1.320570         0.834838
 C        -2.010888        -2.558390        -0.020461
 C        -1.774423        -1.163722        -0.636051
 O        -0.368070        -0.910615        -1.050133
 C         0.363743        -0.543744         0.059551
 C         1.178434         0.624071        -0.020758
 C         1.910942        -0.659511        -0.029807
 C        -0.346984        -1.053404         1.304585
 H        -3.465853        -1.532977         1.815982
 H        -1.208862        -3.233552        -0.078071
 H        -2.995320        -3.059160        -0.043375
 H        -2.640800        -0.636775        -1.051564
 H         1.118475         1.051030        -1.050911
 H         1.228900         1.367664         0.864676
 H         2.451269        -0.965837        -0.941462
 H         2.433012        -1.067613         0.858017
 H         0.133120        -2.096257         1.801366
 H        -0.277867        -0.393172         2.250475
