19
Iteration:  4762
 O        -2.897624        -0.756302         1.568571
 C        -1.766464        -1.283993         0.814404
 C        -1.986918        -2.584156         0.014425
 C        -1.702536        -1.243068        -0.633835
 O        -0.405422        -0.925178        -1.040531
 C         0.361252        -0.605056         0.107063
 C         1.223876         0.684347         0.123709
 C         1.814307        -0.740997        -0.133281
 C        -0.320862        -0.998764         1.343481
 H        -3.370295        -1.472575         1.983620
 H        -1.170602        -3.357497        -0.062000
 H        -2.984945        -3.028359        -0.203727
 H        -2.506259        -0.679232        -1.211974
 H         1.086085         1.361586        -0.798028
 H         1.339756         1.066239         1.098440
 H         2.012170        -0.931820        -1.272542
 H         2.398989        -1.269436         0.668927
 H         0.250890        -1.896155         1.849579
 H        -0.483672        -0.219253         2.168339
