19
Iteration:  3101charge 0 multiplicity 1
 O        -2.971652        -1.037920         1.518239
 C        -1.766243        -1.285292         0.873083
 C        -1.609320        -2.621468         0.073568
 C        -1.717585        -1.189648        -0.626001
 O        -0.566662        -0.515687        -1.037170
 C         0.291215        -0.458440         0.089007
 C         1.486009         0.475595        -0.008995
 C         1.648582        -1.051170        -0.161913
 C        -0.510177        -0.762729         1.390744
 H        -2.943118        -1.375209         2.409541
 H        -0.607023        -3.050913         0.348783
 H        -2.424566        -3.342140        -0.188902
 H        -2.609522        -0.964060        -1.167624
 H         1.487828         1.263703        -0.866002
 H         1.931257         0.870918         0.918472
 H         1.768465        -1.460672        -1.176466
 H         2.021559        -1.560033         0.739199
 H        -0.000918        -1.543104         2.053388
 H        -0.698521         0.152622         1.972980
