19
Iteration:   217
 O        -2.996306        -0.937212         1.565207
 C        -1.784545        -1.396340         0.858698
 C        -1.765677        -2.640004         0.035070
 C        -1.730188        -1.176127        -0.584419
 O        -0.457595        -0.726770        -1.006880
 C         0.356871        -0.467070         0.152853
 C         1.289684         0.623395        -0.188955
 C         1.792007        -0.847218        -0.102277
 C        -0.423030        -0.916653         1.372687
 H        -2.901689        -1.270572         2.492761
 H        -0.794302        -3.004899         0.010082
 H        -2.589481        -3.336568         0.157201
 H        -2.640609        -0.626596        -0.945860
 H         1.007020         1.104673        -1.164688
 H         1.642489         1.268889         0.642735
 H         1.893882        -1.472910        -0.998599
 H         2.458630        -1.065763         0.725268
 H        -0.045924        -1.733404         1.888465
 H        -0.403525         0.008815         2.032493
