19
Iteration:    29
 O        -2.902405        -1.085826         1.747809
 C        -1.848725        -1.364796         0.800449
 C        -1.374348        -2.688897         0.147752
 C        -1.625937        -1.358574        -0.686741
 O        -0.703971        -0.332752        -1.093322
 C         0.213126        -0.335823         0.037985
 C         1.609708         0.402108        -0.085341
 C         1.464975        -1.122826        -0.027433
 C        -0.617537        -0.525826         1.278257
 H        -2.811901        -1.813338         2.402437
 H        -0.335712        -3.048494         0.264253
 H        -1.973876        -3.482896        -0.346454
 H        -2.506574        -1.409441        -1.372559
 H         1.830732         0.822129        -1.057875
 H         1.978804         0.918181         0.805393
 H         1.870847        -1.609605        -1.013195
 H         1.990270        -1.563210         0.787174
 H        -0.029260        -1.162711         1.955729
 H        -0.992996         0.406411         1.826711
