19
Iteration:  3021
 O        -2.922836        -1.334113         1.659279
 C        -1.739795        -1.200499         0.802855
 C        -1.488244        -2.501696        -0.042066
 C        -1.651883        -1.173952        -0.667100
 O        -0.597080        -0.394575        -1.020383
 C         0.288214        -0.327518         0.140645
 C         1.604887         0.264010        -0.112659
 C         1.427823        -1.275356        -0.018311
 C        -0.663021        -0.399078         1.390317
 H        -2.847227        -2.122636         2.169120
 H        -0.469626        -2.864222        -0.064145
 H        -2.310890        -3.115463        -0.258496
 H        -2.600346        -1.076014        -1.352126
 H         1.748766         0.622004        -1.042543
 H         2.206645         0.788653         0.705480
 H         1.575098        -1.907077        -0.857383
 H         2.000823        -1.583132         0.892726
 H        -0.094113        -0.876319         2.251158
 H        -1.045467         0.579108         1.712673
