19
Iteration:  1878charge 0 multiplicity 1
 O        -2.985908        -0.993012         1.584822
 C        -1.817020        -1.304344         0.859276
 C        -1.645731        -2.635363         0.026000
 C        -1.741961        -1.242276        -0.614223
 O        -0.605608        -0.474002        -1.027876
 C         0.338570        -0.589808         0.017119
 C         1.422035         0.488810         0.057968
 C         1.724165        -1.019787        -0.107552
 C        -0.420217        -0.725089         1.280624
 H        -2.961731        -1.549853         2.370710
 H        -0.743812        -3.127742         0.129204
 H        -2.513156        -3.165958        -0.265335
 H        -2.645250        -0.997290        -1.135942
 H         1.513455         1.174155        -0.741164
 H         1.846706         0.835689         0.993620
 H         2.210019        -1.393733        -0.923234
 H         2.161624        -1.323929         0.840847
 H        -0.010189        -1.424047         1.957524
 H        -0.532927         0.194443         1.926825
