19
Iteration:  4371
 O        -2.924669        -1.288439         1.592064
 C        -1.800282        -1.249668         0.867078
 C        -1.419726        -2.430188        -0.042796
 C        -1.711530        -1.125373        -0.631073
 O        -0.593448        -0.398330        -0.965708
 C         0.277551        -0.464979         0.129013
 C         1.520450         0.285677        -0.202873
 C         1.567401        -1.323675         0.132288
 C        -0.633288        -0.363531         1.308272
 H        -3.041042        -2.201262         1.942614
 H        -0.362490        -2.645984        -0.150166
 H        -2.128244        -3.242402        -0.304267
 H        -2.653379        -1.040233        -1.385729
 H         1.856704         0.514907        -1.249236
 H         1.606230         0.987264         0.576761
 H         1.699015        -2.136324        -0.708801
 H         1.955243        -1.456161         1.206733
 H        -0.145552        -0.995699         2.014951
 H        -0.920596         0.682344         1.623499
