19
Iteration:  4625
 O        -2.900150        -0.743062         1.480554
 C        -1.790939        -1.284435         0.834161
 C        -1.860465        -2.582416         0.104236
 C        -1.662354        -1.237015        -0.652838
 O        -0.438552        -0.792041        -1.032256
 C         0.312302        -0.605016         0.133172
 C         1.188358         0.613905         0.105448
 C         1.824513        -0.784553        -0.200620
 C        -0.386534        -1.067047         1.386946
 H        -3.034299        -1.239523         2.332574
 H        -1.013425        -3.292349         0.153008
 H        -2.857128        -2.937847        -0.196014
 H        -2.587071        -0.824627        -1.284819
 H         0.911404         1.337113        -0.797308
 H         1.486267         0.993492         1.106337
 H         2.069399        -1.178653        -1.218826
 H         2.497466        -1.271664         0.480548
 H         0.088842        -2.031744         1.883945
 H        -0.449922        -0.220192         2.138770
