19
Iteration:  2152
 O        -2.885844        -1.312030         1.587714
 C        -1.759053        -1.251246         0.877936
 C        -1.458175        -2.426602         0.013770
 C        -1.742803        -1.080294        -0.564819
 O        -0.503682        -0.424337        -1.031548
 C         0.268085        -0.443221         0.115670
 C         1.466578         0.291939        -0.118071
 C         1.533625        -1.283562        -0.047438
 C        -0.645803        -0.445967         1.347602
 H        -2.915226        -2.119127         2.115322
 H        -0.460059        -2.846155        -0.248882
 H        -2.317038        -3.172713        -0.137793
 H        -2.607482        -0.935850        -1.242217
 H         1.194369         0.884521        -1.087574
 H         2.011191         0.621947         0.856714
 H         1.873646        -1.809840        -0.988891
 H         2.052965        -1.651137         0.974142
 H        -0.213859        -0.744527         2.268862
 H        -1.147935         0.635941         1.399346
