19
Iteration:  2151
 O        -2.887096        -1.313981         1.585596
 C        -1.763293        -1.253626         0.870024
 C        -1.461816        -2.426682         0.014481
 C        -1.750479        -1.072142        -0.556214
 O        -0.505923        -0.436798        -1.035401
 C         0.277902        -0.442222         0.116129
 C         1.473173         0.299491        -0.117643
 C         1.532202        -1.283937        -0.048746
 C        -0.640712        -0.442287         1.348501
 H        -2.892035        -2.128691         2.133993
 H        -0.469142        -2.840432        -0.217622
 H        -2.287239        -3.176134        -0.116201
 H        -2.651985        -0.924599        -1.285459
 H         1.246374         0.882779        -1.042804
 H         2.008851         0.616105         0.871845
 H         1.851481        -1.766538        -0.996969
 H         2.033404        -1.634138         0.976550
 H        -0.212364        -0.755547         2.245954
 H        -1.155242         0.609918         1.412073
