19
Iteration:   906
 O        -2.856411        -0.841923         1.724569
 C        -1.799574        -1.368030         0.897060
 C        -1.872353        -2.529948        -0.034633
 C        -1.723872        -1.133980        -0.700400
 O        -0.398327        -0.900627        -1.113845
 C         0.375396        -0.553798         0.103588
 C         1.138663         0.736351        -0.038999
 C         1.762942        -0.744706        -0.034788
 C        -0.347978        -1.082421         1.322066
 H        -3.252922        -1.517520         2.297852
 H        -1.073280        -3.251246        -0.083663
 H        -2.882738        -3.102706        -0.133742
 H        -2.502448        -0.653375        -1.344497
 H         1.144797         1.210464        -1.012780
 H         1.341561         1.303672         0.803917
 H         2.119537        -1.108245        -0.982572
 H         2.217404        -1.052267         0.913454
 H         0.070351        -2.058735         1.697078
 H        -0.311311        -0.361021         2.207746
