19
Iteration:  3955
 O        -2.914084        -1.137208         1.418018
 C        -1.668747        -1.339794         0.876277
 C        -1.345790        -2.635530         0.189575
 C        -1.721664        -1.216630        -0.609795
 O        -0.646008        -0.285421        -1.016014
 C         0.242378        -0.266132         0.150887
 C         1.510381         0.272814        -0.016342
 C         1.416740        -1.314367        -0.122821
 C        -0.588249        -0.488206         1.351756
 H        -3.064669        -1.863506         2.082275
 H        -0.398178        -3.231188         0.093456
 H        -2.176544        -3.307140        -0.079017
 H        -2.525088        -1.015578        -1.440287
 H         1.678474         0.744093        -0.922312
 H         1.949199         0.681526         0.961850
 H         1.444171        -1.760892        -1.096159
 H         2.063258        -1.828559         0.635657
 H         0.152870        -0.816992         2.078374
 H        -1.121284         0.438681         1.719979
