19
Iteration:    80charge 0 multiplicity 1
 O        -3.074833        -1.435931         1.499416
 C        -1.749947        -1.277376         0.966636
 C        -1.422781        -2.500592         0.038009
 C        -1.764547        -1.179788        -0.483202
 O        -0.655766        -0.553059        -0.975937
 C         0.298739        -0.353042         0.088205
 C         1.654675         0.381061        -0.240449
 C         1.606163        -1.150897        -0.117806
 C        -0.572430        -0.260462         1.375060
 H        -2.930283        -1.811460         2.367680
 H        -0.364231        -2.876466        -0.003274
 H        -2.265377        -3.354838         0.041324
 H        -2.680457        -0.975136        -1.053888
 H         1.880494         0.839215        -1.220531
 H         2.108568         0.792329         0.673446
 H         1.555903        -1.854510        -0.976415
 H         2.005210        -1.705656         0.795255
 H        -0.044347        -0.430026         2.391813
 H        -0.997455         0.700320         1.390959
