19
Iteration:  1096charge 0 multiplicity 1
 O        -2.851690        -0.872937         1.686581
 C        -1.769146        -1.275112         0.768171
 C        -1.962943        -2.503430        -0.041500
 C        -1.689947        -1.131346        -0.725253
 O        -0.431167        -0.973928        -1.000941
 C         0.380104        -0.688743         0.110288
 C         1.054795         0.580030        -0.013756
 C         1.888951        -0.624586        -0.107090
 C        -0.347861        -1.015746         1.405727
 H        -2.628484        -1.380397         2.499121
 H        -1.323174        -3.203920        -0.445909
 H        -3.069292        -2.577688        -0.002937
 H        -2.382090        -0.732248        -1.381322
 H         0.679111         1.218475        -0.867652
 H         1.109690         1.179308         0.949450
 H         2.296145        -0.980246        -1.129886
 H         2.629235        -0.627571         0.747431
 H         0.100865        -1.837099         2.039301
 H        -0.341729        -0.203478         2.163859
