19
Iteration:  3115
 O        -2.983971        -0.936095         1.620604
 C        -1.838353        -1.412506         0.828482
 C        -1.630242        -2.602591        -0.019447
 C        -1.707926        -1.238090        -0.659987
 O        -0.547519        -0.550599        -1.035883
 C         0.313754        -0.489939         0.162886
 C         1.423169         0.476284        -0.027843
 C         1.705681        -0.978733        -0.143272
 C        -0.445964        -0.722553         1.429115
 H        -3.000163        -1.495783         2.443821
 H        -0.852594        -3.468335        -0.156571
 H        -2.691295        -2.988618        -0.129895
 H        -2.420058        -1.217143        -1.558736
 H         1.483998         1.000296        -0.958248
 H         1.678160         0.995253         1.009562
 H         1.781792        -1.416151        -1.129200
 H         2.477315        -1.481770         0.542626
 H         0.139952        -1.338425         2.087272
 H        -0.751818         0.233059         1.957129
