19
Iteration:   903charge 0 multiplicity 1
 O        -2.850863        -0.840168         1.702600
 C        -1.813891        -1.374147         0.922714
 C        -1.890007        -2.521544        -0.030932
 C        -1.727612        -1.168309        -0.700832
 O        -0.391354        -0.886906        -1.096011
 C         0.353138        -0.585830         0.090645
 C         1.139623         0.743277        -0.018442
 C         1.779119        -0.751555        -0.042598
 C        -0.345984        -1.046997         1.318247
 H        -3.213151        -1.627285         2.199971
 H        -1.067451        -3.237847         0.013626
 H        -2.855093        -2.978707        -0.202936
 H        -2.454430        -0.667265        -1.267867
 H         1.153483         1.149253        -1.101709
 H         1.384170         1.346267         0.917470
 H         2.085601        -1.006856        -1.073865
 H         2.239135        -1.044430         0.823160
 H         0.119731        -2.039281         1.638179
 H        -0.257002        -0.390015         2.185595
