19
Iteration:  2033
 O        -3.044260        -1.059316         1.497689
 C        -1.779006        -1.299108         0.846702
 C        -1.838411        -2.607382         0.074514
 C        -1.735998        -1.202301        -0.597173
 O        -0.553510        -0.565840        -1.000608
 C         0.380607        -0.535625         0.104235
 C         1.425706         0.568267        -0.036918
 C         1.892662        -0.902180        -0.186981
 C        -0.388300        -0.806519         1.440347
 H        -3.168981        -1.721827         2.225666
 H        -1.170830        -3.516513         0.233498
 H        -2.916749        -2.834624         0.019649
 H        -2.584904        -0.860748        -1.315478
 H         1.372670         1.171844        -0.953531
 H         1.744009         0.983010         1.043278
 H         2.180533        -1.287550        -1.212172
 H         2.267139        -1.671086         0.615877
 H         0.107164        -1.607636         1.967074
 H        -0.566906         0.181409         1.983807
