19
Iteration:   680charge 0 multiplicity 1
 O        -2.916386        -0.903597         1.551397
 C        -1.761621        -1.409340         0.904001
 C        -1.727063        -2.692772         0.077338
 C        -1.675038        -1.331342        -0.631372
 O        -0.638756        -0.546674        -1.068587
 C         0.254201        -0.389194         0.021855
 C         1.453196         0.562212         0.017186
 C         1.677693        -0.894134        -0.078940
 C        -0.370009        -0.886909         1.322697
 H        -3.134645        -1.357604         2.390297
 H        -0.799033        -3.295218        -0.049176
 H        -2.693330        -3.123455        -0.058725
 H        -2.610121        -1.010374        -1.112854
 H         1.751522         1.277926        -0.739805
 H         1.601660         0.988387         0.926838
 H         1.945175        -1.405537        -0.981838
 H         2.070267        -1.428103         0.748654
 H         0.223100        -1.565578         1.903018
 H        -0.506156         0.037858         1.950332
