19
Iteration:  1019
 O        -2.845195        -0.754062         1.570560
 C        -1.794583        -1.383187         0.864433
 C        -1.890033        -2.577795         0.103644
 C        -1.703228        -1.188813        -0.608161
 O        -0.409493        -0.776355        -1.124050
 C         0.391013        -0.621215         0.076586
 C         1.124145         0.667101         0.047482
 C         1.837134        -0.666982        -0.164615
 C        -0.368496        -1.206968         1.401981
 H        -3.464420        -1.348893         2.072960
 H        -1.081568        -3.307674         0.224883
 H        -2.902508        -2.772753        -0.210706
 H        -2.527765        -0.958966        -1.227507
 H         0.765487         1.213846        -0.871850
 H         1.274608         1.109892         1.052354
 H         2.157697        -0.992819        -1.267196
 H         2.471981        -0.955406         0.701970
 H        -0.009965        -2.040468         2.029963
 H        -0.560862        -0.314368         1.992492
