19
Iteration:  1988charge 0 multiplicity 1
 O        -2.822201        -0.918045         1.750573
 C        -1.806286        -1.287617         0.851547
 C        -1.723559        -2.565005        -0.181476
 C        -1.757420        -1.137970        -0.618669
 O        -0.497225        -0.848205        -1.121201
 C         0.263939        -0.460969         0.044443
 C         1.382398         0.574327         0.047916
 C         1.658726        -0.883974        -0.017443
 C        -0.466163        -0.878973         1.374215
 H        -3.101487        -1.727521         2.226760
 H        -0.719562        -2.934014        -0.180759
 H        -2.585242        -3.144313        -0.384319
 H        -2.608718        -0.678417        -1.221947
 H         1.652927         0.938438        -0.987362
 H         1.458314         1.178270         0.962055
 H         2.135696        -1.351838        -0.959258
 H         2.124458        -1.390763         0.816173
 H        -0.000097        -1.622370         1.981254
 H        -0.677922         0.084583         1.973403
