19
Iteration:  3001charge 0 multiplicity 1
 O        -2.973815        -1.362047         1.638276
 C        -1.747761        -1.339549         0.890569
 C        -1.447013        -2.463945        -0.017842
 C        -1.802027        -1.065665        -0.645371
 O        -0.615468        -0.295729        -1.099948
 C         0.271936        -0.426666         0.076013
 C         1.621808         0.241041        -0.125270
 C         1.569115        -1.260879         0.115711
 C        -0.571733        -0.406621         1.299108
 H        -2.982833        -2.117708         2.260547
 H        -0.524131        -2.968474         0.031146
 H        -2.220361        -3.162772        -0.029207
 H        -2.716341        -0.929850        -1.318278
 H         1.873121         0.601670        -1.058606
 H         1.808229         0.960381         0.718196
 H         1.721573        -1.900236        -0.697010
 H         1.590844        -1.712754         1.078756
 H         0.152888        -0.782439         2.107694
 H        -0.824591         0.620734         1.477077
