19
Iteration:  4070
 O        -2.987398        -0.949331         1.571085
 C        -1.846759        -1.345774         0.859896
 C        -1.738875        -2.608930         0.019653
 C        -1.759005        -1.202734        -0.655548
 O        -0.544206        -0.588557        -1.038753
 C         0.326643        -0.576692         0.055361
 C         1.456660         0.537582         0.057494
 C         1.828543        -0.960187        -0.038268
 C        -0.477950        -0.779942         1.294152
 H        -3.014469        -1.433319         2.434063
 H        -0.833352        -3.266753         0.047663
 H        -2.656500        -3.226311        -0.029536
 H        -2.567197        -0.954147        -1.371320
 H         1.506960         1.089280        -0.841930
 H         1.707598         1.203004         0.995665
 H         2.049895        -1.330452        -1.022052
 H         2.268900        -1.526703         0.813489
 H         0.206527        -1.473001         1.850822
 H        -0.453540         0.178638         1.790716
