19
Iteration:   337
 O        -2.906850        -0.829360         1.574522
 C        -1.769072        -1.410459         0.966862
 C        -1.867652        -2.713518         0.009686
 C        -1.828361        -1.290337        -0.560651
 O        -0.562714        -0.705156        -1.017737
 C         0.397822        -0.482851         0.112816
 C         1.236676         0.645821        -0.205094
 C         1.945984        -0.805077        -0.052253
 C        -0.330243        -0.924326         1.408189
 H        -3.645506        -1.384872         1.236589
 H        -0.935438        -3.146636        -0.202626
 H        -2.719465        -3.362254        -0.093689
 H        -2.646237        -0.759360        -1.114219
 H         1.168127         1.130158        -1.190617
 H         1.357060         1.328846         0.720217
 H         2.352751        -1.296592        -0.990088
 H         2.517748        -0.993451         0.871285
 H         0.189226        -1.726074         1.856850
 H        -0.359317        -0.057907         2.151257
