19
Iteration:  2528
 O        -3.014748        -1.035473         1.646005
 C        -1.810100        -1.350158         0.825313
 C        -1.683532        -2.602529        -0.054096
 C        -1.725584        -1.206698        -0.599641
 O        -0.617333        -0.530895        -1.048879
 C         0.356762        -0.435083         0.136072
 C         1.557348         0.501727        -0.100383
 C         1.740357        -1.010966        -0.080528
 C        -0.486134        -0.752287         1.424472
 H        -3.322114        -1.858996         2.094557
 H        -0.774873        -3.188243        -0.021931
 H        -2.543005        -3.297199        -0.176027
 H        -2.708914        -0.811521        -1.200540
 H         1.644780         0.869060        -1.062979
 H         2.074721         1.128789         0.719020
 H         2.121570        -1.259571        -1.045975
 H         2.199227        -1.441773         0.841466
 H        -0.006342        -1.517189         2.031031
 H        -0.780210         0.127510         1.955384
