19
Iteration:   440charge 0 multiplicity 1
 O        -2.962429        -1.039650         1.567547
 C        -1.732194        -1.379358         0.926457
 C        -1.725388        -2.573762         0.123124
 C        -1.710103        -1.306344        -0.574648
 O        -0.541019        -0.639881        -1.022293
 C         0.337145        -0.426448         0.068804
 C         1.438979         0.586743        -0.132299
 C         1.714994        -0.927521        -0.163894
 C        -0.454749        -0.690012         1.401219
 H        -3.486539        -1.804339         1.803925
 H        -0.860740        -3.333975         0.044691
 H        -2.746715        -3.122354         0.008902
 H        -2.591006        -1.254689        -1.225589
 H         1.570204         1.025524        -1.085049
 H         1.627790         1.168525         0.704522
 H         1.956742        -1.443937        -1.164123
 H         2.188396        -1.338009         0.684079
 H        -0.098475        -1.279147         2.256173
 H        -0.738235         0.269764         1.767395
