19
Iteration:  2410charge 0 multiplicity 1
 O        -2.840387        -0.785620         1.598517
 C        -1.806609        -1.324509         0.808910
 C        -1.851010        -2.627241        -0.067972
 C        -1.702567        -1.227795        -0.644644
 O        -0.499771        -0.633844        -1.010590
 C         0.357303        -0.628476         0.189868
 C         1.249543         0.548576        -0.009210
 C         1.797607        -0.824628        -0.121278
 C        -0.432524        -0.973859         1.396219
 H        -3.149924        -1.490812         2.160102
 H        -0.857387        -3.162076        -0.022787
 H        -2.655353        -3.333001        -0.287633
 H        -2.561263        -0.899935        -1.301284
 H         0.922620         1.159797        -0.860853
 H         1.562357         1.192634         0.829228
 H         2.168353        -1.349312        -1.020200
 H         2.301973        -1.259881         0.835995
 H         0.025220        -1.910683         1.891852
 H        -0.465413        -0.121372         2.047447
