19
Iteration:  1138charge 0 multiplicity 1
 O        -2.874257        -0.774974         1.593802
 C        -1.724928        -1.380661         0.948041
 C        -2.062303        -2.568774        -0.098633
 C        -1.771114        -1.199686        -0.591778
 O        -0.375688        -1.060774        -0.943632
 C         0.379549        -0.559816         0.096236
 C         1.176481         0.761033        -0.049123
 C         1.811818        -0.549398        -0.142350
 C        -0.282449        -1.108006         1.351517
 H        -3.595455        -1.374000         1.747937
 H        -1.441286        -3.436324        -0.216042
 H        -3.191249        -2.713453        -0.132804
 H        -2.321243        -0.554985        -1.191766
 H         1.260494         1.496372        -0.849375
 H         1.382575         1.097872         0.953196
 H         2.283249        -0.872416        -1.139190
 H         2.441720        -0.908181         0.750891
 H         0.178688        -2.163871         1.449440
 H        -0.129123        -0.531328         2.364187
