19
Iteration:  2598
 O        -2.998882        -1.208823         1.654523
 C        -1.809663        -1.342566         0.826547
 C        -1.414469        -2.573723         0.022495
 C        -1.670262        -1.158877        -0.670179
 O        -0.632473        -0.333126        -1.043282
 C         0.201834        -0.329646         0.053060
 C         1.656422         0.282547        -0.021334
 C         1.512001        -1.211047        -0.072415
 C        -0.634591        -0.545823         1.365650
 H        -2.769037        -1.663479         2.492297
 H        -0.491746        -3.125567         0.389061
 H        -2.149370        -3.291878        -0.307126
 H        -2.489466        -1.035403        -1.227877
 H         1.877316         0.860894        -0.960865
 H         2.281073         0.689468         0.781086
 H         1.723748        -1.526439        -1.138477
 H         1.964656        -1.759920         0.786960
 H         0.094597        -0.978287         2.089465
 H        -0.863388         0.469651         1.570040
