19
Iteration:  4468
 O        -3.065507        -0.919717         1.540274
 C        -1.884807        -1.335459         0.887637
 C        -1.626292        -2.581019         0.036251
 C        -1.748631        -1.286129        -0.635024
 O        -0.533564        -0.553675        -0.988424
 C         0.386103        -0.557050         0.080979
 C         1.496718         0.492624         0.026240
 C         1.707739        -0.991353        -0.139109
 C        -0.437338        -0.742197         1.344888
 H        -3.312744        -1.563262         2.250878
 H        -0.593869        -2.924037         0.194964
 H        -2.324944        -3.381402        -0.186089
 H        -2.646303        -1.105571        -1.286504
 H         1.379774         1.100866        -0.912864
 H         1.941858         0.977319         0.814709
 H         1.994902        -1.299784        -1.175210
 H         2.220030        -1.385820         0.768426
 H         0.012536        -1.570669         1.800234
 H        -0.627552         0.150344         1.980528
