19
Iteration:  1961charge 0 multiplicity 1
 O        -2.896419        -1.044630         1.629428
 C        -1.781328        -1.283980         0.813931
 C        -1.885379        -2.539704         0.038425
 C        -1.781827        -1.154121        -0.638399
 O        -0.501078        -0.676157        -1.099225
 C         0.361253        -0.536725         0.062670
 C         1.362262         0.565890         0.036465
 C         1.871987        -0.897783        -0.080497
 C        -0.430744        -0.839391         1.342114
 H        -3.099487        -1.834635         2.151587
 H        -1.102908        -3.367977         0.068705
 H        -2.942775        -2.933840         0.125053
 H        -2.520628        -0.736277        -1.302000
 H         1.375404         1.015879        -0.904795
 H         1.437559         1.201281         0.971738
 H         2.190245        -1.388054        -0.967807
 H         2.236048        -1.273009         0.920273
 H         0.022170        -1.604200         2.049272
 H        -0.639270         0.095008         1.804224
