19
Iteration:  1680charge 0 multiplicity 1
 O        -2.972751        -1.046292         1.594866
 C        -1.733410        -1.333630         0.874909
 C        -1.745575        -2.615543        -0.067319
 C        -1.734081        -1.222863        -0.622537
 O        -0.604878        -0.579035        -1.024508
 C         0.370342        -0.415574         0.129170
 C         1.461539         0.557710        -0.094054
 C         1.685756        -1.031028        -0.026376
 C        -0.437383        -0.701277         1.391120
 H        -2.968579        -1.714255         2.327192
 H        -0.859207        -3.303666        -0.136612
 H        -2.713917        -3.248091        -0.096731
 H        -2.566975        -0.981354        -1.231266
 H         1.567177         0.713908        -1.169416
 H         1.869346         1.265316         0.631108
 H         2.102310        -1.443621        -0.940148
 H         2.165248        -1.561344         0.824188
 H         0.072616        -1.407532         2.023445
 H        -0.651244         0.249801         1.925520
