19
Iteration:  2276
 O        -3.038146        -1.052888         1.580375
 C        -1.800812        -1.318542         0.875779
 C        -1.740287        -2.608794         0.002110
 C        -1.702015        -1.237736        -0.640967
 O        -0.524448        -0.549846        -0.982372
 C         0.340409        -0.444409         0.063551
 C         1.550398         0.525045        -0.015997
 C         1.660729        -0.949249        -0.141782
 C        -0.440075        -0.764855         1.343027
 H        -3.034962        -1.753121         2.240157
 H        -1.068597        -3.409066         0.206255
 H        -2.754744        -2.896127         0.177824
 H        -2.579912        -0.870386        -1.346728
 H         1.655901         0.955060        -0.913451
 H         1.843470         1.013637         0.940386
 H         1.929270        -1.432148        -0.998439
 H         2.051549        -1.535996         0.636151
 H         0.119993        -1.534160         1.989534
 H        -0.397650         0.105809         1.968732
