19
Iteration:   523charge 0 multiplicity 1
 O        -2.918725        -1.461583         1.709211
 C        -1.704156        -1.327417         0.875423
 C        -1.507846        -2.541183         0.175977
 C        -1.749494        -1.137697        -0.653782
 O        -0.606538        -0.471219        -1.065231
 C         0.248983        -0.383380        -0.003158
 C         1.640131         0.330552        -0.027596
 C         1.520316        -1.133622        -0.140438
 C        -0.599975        -0.316815         1.281799
 H        -3.370752        -0.591494         1.505410
 H        -0.580831        -3.145497         0.212447
 H        -2.433658        -3.133126         0.200104
 H        -2.615250        -1.099052        -1.322416
 H         2.218241         0.979197        -0.810539
 H         1.805670         0.666232         1.009920
 H         1.679225        -1.547468        -1.228295
 H         1.955724        -1.746620         0.658576
 H        -0.103371        -0.630840         2.217898
 H        -1.140310         0.688006         1.459355
