19
Iteration:  2500
 O        -2.905434        -1.006062         1.680292
 C        -1.771674        -1.317225         0.795773
 C        -1.774794        -2.587214        -0.001025
 C        -1.682032        -1.142367        -0.681467
 O        -0.483358        -0.618215        -1.058162
 C         0.384459        -0.474816         0.148474
 C         1.325832         0.582277        -0.053954
 C         1.661299        -1.042078        -0.039603
 C        -0.469821        -0.828874         1.321618
 H        -3.098187        -1.796543         2.202528
 H        -0.901060        -3.273571        -0.053553
 H        -2.833160        -2.979625        -0.016887
 H        -2.442231        -0.885895        -1.248429
 H         1.358117         1.241534        -1.006756
 H         1.797805         1.052636         0.800565
 H         1.986256        -1.441739        -1.074411
 H         2.152210        -1.217172         0.953129
 H         0.033383        -1.655583         1.931890
 H        -0.723097         0.081546         1.980572
