19
Iteration:  4299
 O        -2.954084        -1.080936         1.471654
 C        -1.765632        -1.356792         0.864097
 C        -1.503716        -2.565579         0.071199
 C        -1.708783        -1.224530        -0.597865
 O        -0.606171        -0.443162        -1.015427
 C         0.289425        -0.532891         0.080016
 C         1.527846         0.443722         0.050517
 C         1.605810        -1.183389        -0.088018
 C        -0.586154        -0.560466         1.327520
 H        -2.907913        -1.330072         2.440630
 H        -0.571571        -3.116803        -0.093919
 H        -2.453505        -3.129039        -0.089680
 H        -2.560467        -0.955286        -1.168117
 H         1.459721         1.151774        -0.880281
 H         1.905627         0.845419         0.978128
 H         1.863608        -1.424736        -1.128131
 H         2.049074        -1.768982         0.689966
 H        -0.090609        -1.172235         2.153651
 H        -0.852974         0.456665         1.606325
