19
Iteration:  1515charge 0 multiplicity 1
 O        -2.928381        -0.922329         1.624686
 C        -1.785457        -1.277795         0.831275
 C        -1.997608        -2.549365        -0.012467
 C        -1.817922        -1.190142        -0.642297
 O        -0.406719        -0.983187        -1.068024
 C         0.425230        -0.482385         0.130507
 C         1.347338         0.719835         0.022235
 C         1.836298        -0.703279        -0.113411
 C        -0.369109        -1.020662         1.356528
 H        -3.162356        -1.556981         2.314593
 H        -1.219899        -3.399739        -0.106653
 H        -3.111254        -2.895387         0.042101
 H        -2.608321        -0.758411        -1.254364
 H         1.406511         1.554586        -0.719048
 H         1.663181         1.286152         0.860718
 H         2.021344        -1.104698        -1.175855
 H         2.467151        -1.174874         0.629861
 H        -0.062822        -1.843459         1.911456
 H        -0.504678        -0.169722         2.021346
