19
Iteration:  1676charge 0 multiplicity 1
 O        -2.959992        -1.033583         1.599468
 C        -1.770599        -1.361183         0.910293
 C        -1.720986        -2.595920        -0.089741
 C        -1.727977        -1.208096        -0.642408
 O        -0.585567        -0.619181        -1.034566
 C         0.360816        -0.449750         0.112270
 C         1.469383         0.565029        -0.107999
 C         1.665482        -1.004439        -0.012652
 C        -0.438798        -0.697654         1.413081
 H        -2.988460        -1.641722         2.338617
 H        -0.934483        -3.289656        -0.162633
 H        -2.618618        -3.140631        -0.162625
 H        -2.666098        -0.938928        -1.144861
 H         1.486574         0.821299        -1.152570
 H         1.905142         1.181404         0.698831
 H         2.012789        -1.394424        -0.941936
 H         2.133039        -1.496812         0.836760
 H         0.192896        -1.440551         2.018206
 H        -0.659160         0.223266         1.940748
