19
Iteration:  4545charge 0 multiplicity 1
 O        -2.937035        -0.990017         1.675246
 C        -1.882323        -1.228093         0.878218
 C        -1.846558        -2.403200        -0.031430
 C        -1.742876        -1.133730        -0.680001
 O        -0.416706        -0.872887        -1.133490
 C         0.396934        -0.614923         0.044642
 C         1.285658         0.562139        -0.007700
 C         1.864085        -0.840249        -0.024224
 C        -0.505196        -0.895632         1.359699
 H        -2.899870        -1.570182         2.479339
 H        -0.913116        -2.990786        -0.102610
 H        -2.682494        -3.115820        -0.060408
 H        -2.465880        -0.741834        -1.272036
 H         1.142076         1.120672        -0.868222
 H         1.557025         1.103534         0.857495
 H         2.324930        -1.330898        -0.904235
 H         2.394409        -1.023435         0.998775
 H        -0.061855        -1.653001         2.009358
 H        -0.387708         0.057353         2.018498
