19
Iteration:   821
 O        -2.881114        -0.836257         1.551717
 C        -1.763791        -1.320484         0.861408
 C        -1.840394        -2.566647         0.039653
 C        -1.723630        -1.235764        -0.626793
 O        -0.447220        -0.766600        -1.114859
 C         0.339103        -0.557914         0.143571
 C         1.166504         0.632754         0.060529
 C         1.739726        -0.740352        -0.109994
 C        -0.360765        -1.101941         1.342842
 H        -2.602618        -1.096459         2.454767
 H        -0.901940        -3.083231        -0.007615
 H        -2.776741        -3.186819         0.006345
 H        -2.537706        -0.745140        -1.193159
 H         0.930626         1.207121        -0.776739
 H         1.478870         1.171564         0.812097
 H         2.128800        -1.175138        -1.024846
 H         2.381105        -1.084317         0.663663
 H         0.004276        -1.977291         1.753978
 H        -0.345899        -0.290818         2.082829
