19
Iteration:   991
 O        -2.890901        -0.782781         1.646929
 C        -1.804493        -1.235344         0.775030
 C        -1.875257        -2.639668        -0.050227
 C        -1.829339        -1.230903        -0.656847
 O        -0.354555        -0.964153        -0.955661
 C         0.381005        -0.556292         0.120798
 C         1.207207         0.656290         0.104417
 C         1.799075        -0.655329        -0.239814
 C        -0.332779        -1.055298         1.380047
 H        -3.368404        -1.547403         2.066737
 H        -0.942812        -3.094489        -0.170425
 H        -2.846074        -3.183211        -0.135790
 H        -2.571541        -0.557659        -1.107184
 H         1.073141         1.261501        -0.815103
 H         1.248877         1.004957         1.148631
 H         1.936436        -0.631926        -1.260323
 H         2.512846        -1.088707         0.356023
 H        -0.074638        -1.995911         1.893148
 H        -0.389529        -0.211751         2.067692
