19
Iteration:  4472charge 0 multiplicity 1
 O        -3.046960        -0.935481         1.527713
 C        -1.853475        -1.325311         0.886608
 C        -1.689800        -2.594807         0.049937
 C        -1.752608        -1.295511        -0.626360
 O        -0.515429        -0.540192        -1.007565
 C         0.382624        -0.545341         0.099967
 C         1.487030         0.530404         0.003002
 C         1.699366        -0.998199        -0.123336
 C        -0.434129        -0.760765         1.336107
 H        -3.311073        -1.564632         2.197012
 H        -0.686014        -3.022089         0.205627
 H        -2.417297        -3.387840        -0.180142
 H        -2.515845        -1.054981        -1.275076
 H         1.383997         1.101992        -0.858188
 H         1.957101         1.140333         0.825247
 H         1.975458        -1.347234        -1.105305
 H         2.234270        -1.499164         0.715307
 H         0.058475        -1.575255         1.977319
 H        -0.568402         0.111355         1.963761
