19
Iteration:   611charge 0 multiplicity 1
 O        -3.038360        -1.237909         1.560924
 C        -1.758494        -1.308369         0.894552
 C        -1.625743        -2.618070         0.122889
 C        -1.715993        -1.150378        -0.551377
 O        -0.570158        -0.494863        -1.006194
 C         0.350140        -0.358180         0.086543
 C         1.578109         0.402075        -0.151801
 C         1.650382        -1.061840        -0.125822
 C        -0.563777        -0.547037         1.349111
 H        -2.870831        -2.044702         2.123605
 H        -0.599396        -2.963782         0.034701
 H        -2.605723        -3.149774        -0.159128
 H        -2.570993        -0.907766        -1.166954
 H         1.825088         0.942185        -1.036552
 H         1.958609         0.991370         0.716187
 H         1.678394        -1.608075        -1.142970
 H         2.185643        -1.672781         0.639364
 H         0.038553        -1.023184         2.078634
 H        -1.097523         0.276433         1.851548
