19
Iteration:  2463
 O        -3.027287        -0.940969         1.578589
 C        -1.785063        -1.366013         0.889645
 C        -1.827696        -2.556126        -0.056953
 C        -1.852211        -1.153843        -0.584455
 O        -0.574560        -0.801272        -1.046896
 C         0.417685        -0.578694         0.087062
 C         1.414642         0.621822         0.079657
 C         1.937747        -0.860157        -0.140918
 C        -0.426313        -0.830034         1.316481
 H        -3.071899        -1.501997         2.349406
 H        -0.969147        -3.209335        -0.339932
 H        -2.742654        -3.149686         0.042646
 H        -2.860670        -0.675036        -1.106733
 H         1.651565         1.302335        -0.691882
 H         1.576219         1.010399         1.129737
 H         2.381132        -1.107950        -1.101096
 H         2.701084        -1.263144         0.620324
 H         0.125995        -1.537964         1.990372
 H        -0.528719         0.090724         1.811379
