19
Iteration:  4522charge 0 multiplicity 1
 O        -3.012108        -0.919374         1.665941
 C        -1.787338        -1.383118         0.819214
 C        -1.874601        -2.566660        -0.134710
 C        -1.767929        -1.129141        -0.590220
 O        -0.480084        -0.836798        -1.030721
 C         0.429899        -0.519318         0.098275
 C         1.369030         0.578379        -0.048039
 C         1.853352        -0.860120        -0.011991
 C        -0.395876        -0.815067         1.351631
 H        -3.065704        -1.570623         2.392495
 H        -1.006309        -3.195841        -0.404783
 H        -2.782165        -3.155109        -0.225631
 H        -2.627339        -0.679214        -1.109102
 H         1.531635         1.034181        -1.066655
 H         1.461397         1.263015         0.720193
 H         2.141131        -1.313973        -0.987502
 H         2.355790        -1.347675         0.889698
 H         0.006970        -1.287012         2.227324
 H        -0.870415         0.098104         1.892243
