19
Iteration:   402
 O        -2.835469        -1.009413         1.740390
 C        -1.826740        -1.296039         0.897198
 C        -1.724384        -2.513237         0.083063
 C        -1.790845        -1.263042        -0.658305
 O        -0.513206        -0.873765        -1.093282
 C         0.371971        -0.624152        -0.016552
 C         1.315752         0.627774         0.048184
 C         1.873111        -0.845568        -0.185530
 C        -0.556313        -0.701262         1.345137
 H        -3.690702        -1.433070         1.543432
 H        -0.852708        -3.007544        -0.147209
 H        -2.583903        -3.087545         0.196065
 H        -2.607531        -0.933071        -1.302157
 H         1.404987         1.397017        -0.753973
 H         1.349572         1.108966         1.101942
 H         2.202918        -0.924376        -1.189572
 H         2.492937        -1.458213         0.535465
 H        -0.016432        -1.119150         2.189963
 H        -0.878197         0.371292         1.619624
