19
Iteration:  1779
 O        -3.046235        -1.262002         1.572653
 C        -1.850617        -1.418399         0.915524
 C        -1.421410        -2.546108         0.005039
 C        -1.685112        -1.173569        -0.619188
 O        -0.671791        -0.290280        -0.919194
 C         0.327945        -0.338637        -0.001156
 C         1.601746         0.299576        -0.137860
 C         1.534480        -1.249354        -0.018569
 C        -0.534026        -0.443509         1.301315
 H        -3.002323        -1.783570         2.419646
 H        -0.361562        -3.027075         0.237892
 H        -2.379203        -3.149089        -0.019414
 H        -2.599355        -1.056941        -1.394594
 H         2.106032         0.461836        -1.110345
 H         2.038866         0.929960         0.636448
 H         1.926064        -1.932191        -0.856792
 H         2.140933        -1.593573         0.816040
 H         0.088415        -0.730132         2.132819
 H        -0.973454         0.574998         1.642426
