19
Iteration:  4069charge 0 multiplicity 1
 O        -2.980795        -0.947052         1.569846
 C        -1.851667        -1.353942         0.871338
 C        -1.734693        -2.607901         0.016859
 C        -1.772938        -1.199289        -0.661874
 O        -0.549768        -0.590446        -1.045411
 C         0.327252        -0.576792         0.065479
 C         1.468759         0.543209         0.055878
 C         1.826984        -0.964746        -0.029308
 C        -0.476242        -0.779987         1.292684
 H        -3.011290        -1.436482         2.442289
 H        -0.861325        -3.263310         0.019343
 H        -2.625501        -3.241045        -0.056545
 H        -2.533015        -0.966680        -1.362569
 H         1.506824         1.097903        -0.827983
 H         1.696645         1.180154         0.951489
 H         2.050749        -1.310080        -1.039721
 H         2.246353        -1.513702         0.829591
 H         0.224728        -1.443273         1.854500
 H        -0.474397         0.183590         1.764303
