19
Iteration:  2726charge 0 multiplicity 1
 O        -2.963071        -0.970652         1.523161
 C        -1.714658        -1.287499         0.936024
 C        -1.612580        -2.553396        -0.018525
 C        -1.784587        -1.272683        -0.573621
 O        -0.566839        -0.560253        -1.112140
 C         0.264273        -0.483120         0.044576
 C         1.465761         0.496506         0.074571
 C         1.646985        -1.040718        -0.134604
 C        -0.439679        -0.755183         1.414134
 H        -3.312465        -1.493253         2.273520
 H        -0.642848        -3.062089        -0.213572
 H        -2.458914        -3.248165        -0.380892
 H        -2.672153        -1.064408        -0.885971
 H         1.689101         1.172139        -0.684394
 H         1.602069         1.112257         1.057766
 H         1.876093        -1.641836        -1.043525
 H         2.194148        -1.764328         0.643265
 H         0.174289        -1.485120         2.058875
 H        -0.693430         0.140614         1.982920
