19
Iteration:  2729charge 0 multiplicity 1
 O        -2.973056        -0.970633         1.509422
 C        -1.697807        -1.312533         0.944844
 C        -1.637116        -2.545867         0.008289
 C        -1.760864        -1.273314        -0.613453
 O        -0.570991        -0.561884        -1.113227
 C         0.280057        -0.479152         0.047919
 C         1.449716         0.490976         0.073282
 C         1.662004        -1.029648        -0.136633
 C        -0.430970        -0.766691         1.433390
 H        -3.264859        -1.445098         2.282739
 H        -0.698169        -2.990639        -0.179015
 H        -2.505991        -3.169471        -0.269535
 H        -2.877977        -1.044240        -0.930289
 H         1.708608         1.131742        -0.741024
 H         1.578145         1.020634         1.078910
 H         1.892953        -1.499581        -1.071435
 H         2.214805        -1.679484         0.595319
 H         0.088835        -1.482542         2.084944
 H        -0.626822         0.090018         2.012983
