19
Iteration:  1885charge 0 multiplicity 1
 O        -2.998246        -0.973964         1.571335
 C        -1.757415        -1.311673         0.836196
 C        -1.642297        -2.587739         0.016920
 C        -1.705828        -1.222178        -0.588741
 O        -0.560138        -0.487522        -1.075397
 C         0.314932        -0.529702         0.047264
 C         1.342873         0.452535         0.042490
 C         1.699578        -1.036775        -0.112153
 C        -0.411835        -0.793799         1.363702
 H        -2.993390        -1.480725         2.417730
 H        -0.662123        -3.222353         0.180004
 H        -2.578871        -3.247385        -0.038930
 H        -2.578402        -0.942145        -1.256758
 H         1.314518         1.177226        -0.758775
 H         1.764394         0.976527         0.958910
 H         2.097561        -1.273703        -1.135384
 H         2.078695        -1.478093         0.845161
 H         0.182503        -1.520513         2.019395
 H        -0.589740         0.162738         1.859782
