19
Iteration:  2817
 O        -2.896643        -1.007943         1.558945
 C        -1.670432        -1.373636         0.892083
 C        -1.825246        -2.488983        -0.013818
 C        -1.834695        -1.070149        -0.605724
 O        -0.503286        -0.737176        -1.150114
 C         0.329921        -0.535101         0.052024
 C         1.355328         0.500013         0.003946
 C         1.778615        -0.882610        -0.010122
 C        -0.437715        -0.838647         1.439456
 H        -3.194248        -1.797932         2.000755
 H        -1.054572        -3.226800        -0.014247
 H        -2.674294        -3.042920         0.179666
 H        -2.715558        -0.581325        -1.227874
 H         1.537382         1.025439        -0.986285
 H         1.509523         1.164261         0.780363
 H         2.170398        -1.303082        -0.936564
 H         2.192943        -1.204952         0.870878
 H         0.099257        -1.530340         2.103488
 H        -0.632193         0.097370         1.890421
