19
Iteration:  1012
 O        -2.869466        -0.727060         1.615278
 C        -1.812908        -1.376773         0.887979
 C        -1.830901        -2.530350         0.016847
 C        -1.675099        -1.201410        -0.608842
 O        -0.437875        -0.854114        -1.123067
 C         0.415389        -0.625100         0.094609
 C         1.098589         0.664556         0.088178
 C         1.834886        -0.676280        -0.205592
 C        -0.408471        -1.142034         1.418618
 H        -3.425776        -1.430017         1.997151
 H        -1.014647        -3.162819         0.147487
 H        -2.814567        -3.002321        -0.242511
 H        -2.416355        -0.998609        -1.378469
 H         0.739804         1.327246        -0.797127
 H         1.493721         1.043595         1.101164
 H         1.969621        -1.065778        -1.182221
 H         2.511147        -0.957834         0.536540
 H         0.035063        -2.065438         1.808230
 H        -0.423794        -0.327963         2.133837
