19
Iteration:  4124
 O        -2.999560        -0.824532         1.490899
 C        -1.837794        -1.334787         0.867880
 C        -1.772292        -2.657506        -0.025167
 C        -1.717245        -1.223968        -0.581410
 O        -0.505642        -0.741641        -0.933697
 C         0.378310        -0.507754         0.127101
 C         1.417351         0.583839        -0.024916
 C         1.824753        -0.914540        -0.237395
 C        -0.509221        -0.898121         1.491561
 H        -3.506330        -1.581600         1.830501
 H        -0.703406        -2.991598        -0.104218
 H        -2.638678        -3.253929        -0.341448
 H        -2.668199        -0.730216        -1.014628
 H         1.285803         1.352916        -0.725365
 H         1.575709         1.060352         1.025858
 H         2.254051        -1.169656        -1.168916
 H         2.607195        -1.396630         0.406513
 H         0.237409        -1.446313         2.104541
 H        -0.583542         0.058454         1.963093
