19
Iteration:  1564
 O        -2.828974        -0.777188         1.531389
 C        -1.766901        -1.381992         0.827789
 C        -1.861522        -2.626799         0.029862
 C        -1.695747        -1.214243        -0.614024
 O        -0.478486        -0.692868        -1.106566
 C         0.338331        -0.646039         0.113452
 C         1.161505         0.582730         0.072768
 C         1.758795        -0.803218        -0.109255
 C        -0.339148        -0.985073         1.395609
 H        -3.130842        -1.386479         2.242803
 H        -0.967006        -3.179721        -0.064560
 H        -2.765646        -3.092683         0.021806
 H        -2.623850        -0.759262        -1.047458
 H         0.890313         1.200665        -0.765265
 H         1.359732         1.312698         0.856630
 H         2.075611        -1.228265        -1.031942
 H         2.367579        -1.134903         0.707320
 H         0.218950        -1.802521         1.926579
 H        -0.456874        -0.102078         2.057053
