19
Iteration:  2975
 O        -2.932419        -1.238898         1.578390
 C        -1.716828        -1.292373         0.871133
 C        -1.473335        -2.520828        -0.079042
 C        -1.852460        -1.174006        -0.608266
 O        -0.652898        -0.406980        -1.008679
 C         0.261900        -0.388247         0.082449
 C         1.598061         0.290355        -0.049200
 C         1.618288        -1.245993         0.037674
 C        -0.590942        -0.446842         1.303855
 H        -2.893408        -1.855728         2.325619
 H        -0.490953        -2.933994        -0.496932
 H        -2.352214        -3.251503        -0.009074
 H        -2.725155        -0.793471        -1.124791
 H         1.871457         0.887438        -0.985530
 H         1.918645         0.725404         0.883755
 H         2.070855        -1.834271        -0.837637
 H         1.812156        -1.645903         1.078570
 H         0.021814        -0.843549         2.099425
 H        -0.826234         0.628390         1.547656
