19
Iteration:  4344
 O        -2.939327        -1.314860         1.649447
 C        -1.776727        -1.256792         0.845814
 C        -1.508621        -2.460721        -0.019312
 C        -1.765438        -1.131953        -0.650210
 O        -0.566970        -0.428027        -1.105877
 C         0.284086        -0.358039         0.129476
 C         1.633659         0.321213        -0.051761
 C         1.581072        -1.265720         0.073652
 C        -0.643188        -0.438970         1.267557
 H        -2.943752        -2.183077         2.143011
 H        -0.527903        -2.914402        -0.184104
 H        -2.361017        -3.129743         0.076360
 H        -2.582285        -1.114953        -1.242032
 H         1.784804         0.467028        -1.126276
 H         2.104579         1.029149         0.758254
 H         1.735556        -1.970950        -0.684960
 H         1.636620        -1.600079         1.054552
 H        -0.173053        -0.781215         2.229931
 H        -1.046156         0.593201         1.434975
