19
Iteration:  2119charge 0 multiplicity 1
 O        -3.028055        -1.249280         1.632227
 C        -1.802181        -1.293129         0.902090
 C        -1.581714        -2.574978        -0.016519
 C        -1.800021        -1.258118        -0.612468
 O        -0.640065        -0.418795        -1.089701
 C         0.332819        -0.330941         0.014395
 C         1.693903         0.356673         0.002065
 C         1.616375        -1.135591        -0.043131
 C        -0.502601        -0.501325         1.328452
 H        -2.857880        -1.769936         2.416927
 H        -0.651520        -3.138519        -0.250430
 H        -2.530504        -3.176926        -0.081037
 H        -2.707124        -1.166479        -1.345310
 H         1.994251         0.979601        -0.861073
 H         2.069786         0.939509         0.976294
 H         2.055280        -1.397958        -1.029165
 H         1.880213        -1.731379         0.946650
 H         0.056159        -1.040198         2.059422
 H        -0.920709         0.454554         1.886311
