19
Iteration:  1159charge 0 multiplicity 1
 O        -2.758739        -0.734669         1.607199
 C        -1.762728        -1.347262         0.818527
 C        -2.130880        -2.588588         0.064007
 C        -1.734012        -1.214082        -0.662413
 O        -0.401485        -1.058130        -1.078347
 C         0.377818        -0.513804         0.170374
 C         1.157954         0.814526         0.060396
 C         1.849367        -0.574560        -0.087240
 C        -0.287308        -1.205553         1.300149
 H        -3.425271        -1.385711         1.946590
 H        -1.371244        -3.363524         0.028455
 H        -3.195614        -2.989044        -0.152652
 H        -2.405274        -0.602350        -1.221470
 H         0.878326         1.273864        -0.877573
 H         1.290992         1.442795         0.905786
 H         2.166888        -0.917740        -1.143101
 H         2.585785        -1.005514         0.679161
 H         0.121523        -2.255239         1.482978
 H        -0.524539        -0.553472         2.227909
