19
Iteration:  3978charge 0 multiplicity 1
 O        -3.061470        -1.206775         1.557708
 C        -1.827080        -1.262710         0.892660
 C        -1.374399        -2.488062         0.031987
 C        -1.674399        -1.260033        -0.622959
 O        -0.653494        -0.354511        -0.986701
 C         0.343445        -0.437883         0.112395
 C         1.594572         0.343565        -0.114977
 C         1.552385        -1.241912        -0.105114
 C        -0.583602        -0.491330         1.406351
 H        -3.359570        -2.033278         2.000054
 H        -0.352505        -2.847252         0.266261
 H        -1.998108        -3.362053        -0.128288
 H        -2.492039        -0.964725        -1.391103
 H         1.833713         0.716286        -1.091767
 H         2.095567         0.693416         0.747990
 H         1.668878        -1.719576        -1.050978
 H         1.885641        -1.845986         0.803747
 H        -0.002409        -0.704977         2.311326
 H        -1.033503         0.528299         1.495851
