19
Iteration:  3148
 O        -2.892474        -1.006716         1.590768
 C        -1.844926        -1.402478         0.823576
 C        -1.847457        -2.586133         0.039112
 C        -1.781381        -1.059762        -0.584007
 O        -0.521740        -0.729609        -1.063298
 C         0.374805        -0.568541         0.079297
 C         1.421297         0.563347        -0.052260
 C         1.853282        -0.854255        -0.051569
 C        -0.425875        -0.802933         1.354842
 H        -3.333465        -1.793030         2.016665
 H        -0.950084        -3.310723        -0.052875
 H        -2.905689        -2.971986        -0.016161
 H        -2.678178        -0.822186        -1.238596
 H         1.345184         1.181069        -0.913622
 H         1.688143         1.113377         0.960382
 H         2.105125        -1.364960        -1.007451
 H         2.387039        -1.111524         0.896502
 H         0.023321        -1.367022         2.147846
 H        -0.859125         0.165001         1.758437
