19
Iteration:  4788charge 0 multiplicity 1
 O        -2.767946        -0.733107         1.425896
 C        -1.727567        -1.392583         0.836507
 C        -2.011297        -2.657436         0.070683
 C        -1.703436        -1.233735        -0.599081
 O        -0.466709        -0.775157        -1.084508
 C         0.340441        -0.636721         0.109848
 C         1.203479         0.691257         0.055877
 C         1.844501        -0.723824        -0.092876
 C        -0.415766        -1.075800         1.427913
 H        -2.846360        -0.830123         2.377075
 H        -1.358855        -3.490099        -0.120846
 H        -3.072107        -2.885239        -0.046118
 H        -2.549578        -0.835436        -1.206257
 H         1.124931         1.233529        -0.850982
 H         1.275478         1.082228         1.131184
 H         2.192065        -0.993420        -1.018069
 H         2.300474        -1.155203         0.796276
 H         0.066334        -1.936734         1.815653
 H        -0.546027        -0.301241         2.245179
