19
Iteration:  4975charge 0 multiplicity 1
 O        -2.707293        -0.596966         1.574380
 C        -1.785130        -1.412098         0.806052
 C        -2.021854        -2.648898         0.073557
 C        -1.683544        -1.321883        -0.687228
 O        -0.409600        -0.979235        -1.045185
 C         0.324238        -0.514987         0.104700
 C         1.237962         0.688670         0.238010
 C         1.790284        -0.650431        -0.190416
 C        -0.424672        -1.128359         1.327062
 H        -3.568860        -0.605080         1.161585
 H        -1.382128        -3.517649        -0.114315
 H        -3.078014        -2.983404         0.011011
 H        -2.495763        -0.869679        -1.262396
 H         1.221436         1.567694        -0.492305
 H         1.407201         0.975190         1.314072
 H         1.852957        -0.648245        -1.276141
 H         2.250591        -1.167263         0.591105
 H         0.149954        -1.962971         1.751722
 H        -0.531264        -0.308762         2.091738
