19
Iteration:   590
 O        -2.936436        -1.175351         1.604273
 C        -1.708910        -1.355775         0.955873
 C        -1.464303        -2.610252        -0.021142
 C        -1.783819        -1.243231        -0.653415
 O        -0.713234        -0.390484        -1.047304
 C         0.315118        -0.347525         0.130060
 C         1.586634         0.346473        -0.168563
 C         1.527442        -1.109986        -0.000465
 C        -0.488349        -0.524082         1.418795
 H        -3.392885        -2.006211         1.454402
 H        -0.468789        -3.099110        -0.158224
 H        -2.435227        -3.278014        -0.105870
 H        -2.678585        -0.984219        -1.215450
 H         1.628810         0.643061        -1.166187
 H         2.152380         1.004111         0.519267
 H         1.825308        -1.837215        -0.850493
 H         1.778145        -1.444910         1.039660
 H         0.063794        -0.944292         2.211468
 H        -0.702363         0.550823         1.732860
