19
Iteration:  4840charge 0 multiplicity 1
 O        -2.867225        -0.808699         1.557623
 C        -1.784046        -1.239260         0.806858
 C        -2.008284        -2.523021         0.079092
 C        -1.674720        -1.170719        -0.657356
 O        -0.367883        -0.936818        -1.060542
 C         0.350189        -0.635906         0.103345
 C         1.167141         0.697847         0.042802
 C         1.803798        -0.727932        -0.079004
 C        -0.357426        -1.088886         1.332842
 H        -3.037132        -1.579537         2.144951
 H        -1.184442        -3.243372         0.200516
 H        -3.056122        -2.874788         0.000695
 H        -2.522410        -0.615600        -1.194462
 H         1.123421         1.120322        -0.914391
 H         1.299414         1.190491         1.035158
 H         2.223216        -1.058179        -1.011235
 H         2.467089        -1.123858         0.780821
 H         0.062643        -2.063322         1.770138
 H        -0.380531        -0.160879         1.987913
