19
Iteration:  1001charge 0 multiplicity 1
 O        -2.889668        -0.734458         1.652995
 C        -1.824205        -1.257874         0.889166
 C        -1.826837        -2.603354        -0.066714
 C        -1.707309        -1.225073        -0.662990
 O        -0.394443        -0.918199        -1.048126
 C         0.341015        -0.648987         0.163972
 C         1.123112         0.649269         0.098535
 C         1.827873        -0.679868        -0.247289
 C        -0.383941        -1.050051         1.376975
 H        -3.428275        -1.497112         2.006744
 H        -0.920416        -3.120698        -0.039018
 H        -2.706845        -3.270606        -0.212848
 H        -2.523918        -0.759232        -1.202980
 H         0.953698         1.515502        -0.658212
 H         1.428428         1.160683         1.088220
 H         2.005558        -0.907771        -1.295262
 H         2.575964        -1.035950         0.388089
 H         0.018625        -2.021961         1.702849
 H        -0.262034        -0.419589         2.228177
