19
Iteration:  3305charge 0 multiplicity 1
 O        -2.766974        -0.780759         1.611004
 C        -1.772232        -1.409811         0.794407
 C        -2.084423        -2.493444        -0.056768
 C        -1.762099        -1.246286        -0.700942
 O        -0.409607        -0.914968        -1.028764
 C         0.413034        -0.651111         0.115705
 C         1.156666         0.715939         0.013793
 C         1.887019        -0.619614         0.009750
 C        -0.381772        -1.096662         1.367867
 H        -2.970855        -1.449803         2.254465
 H        -1.402850        -3.386883        -0.301678
 H        -3.208091        -2.730276        -0.031230
 H        -2.581730        -0.687283        -1.248363
 H         1.017954         1.191749        -0.959454
 H         1.357955         1.382961         0.946396
 H         2.269729        -0.994467        -0.965228
 H         2.531735        -1.152781         0.828802
 H         0.020031        -1.862989         2.040874
 H        -0.485641        -0.161394         1.893841
