19
Iteration:   537
 O        -2.867695        -1.420096         1.798958
 C        -1.845148        -1.231166         0.890547
 C        -1.464649        -2.550126         0.045824
 C        -1.711169        -1.293210        -0.650070
 O        -0.622544        -0.408989        -1.137437
 C         0.297286        -0.281820         0.062840
 C         1.634038         0.304430        -0.012601
 C         1.572565        -1.217481        -0.095678
 C        -0.663809        -0.322737         1.279876
 H        -3.725924        -1.059215         1.568412
 H        -0.468341        -3.044626         0.126601
 H        -2.419909        -3.249408         0.014583
 H        -2.582826        -1.115641        -1.288533
 H         1.873080         0.796338        -0.898201
 H         2.030825         0.839929         0.848457
 H         1.620070        -1.553598        -1.199717
 H         1.950341        -1.941511         0.621779
 H        -0.103083        -0.679036         2.118471
 H        -0.971767         0.783392         1.563070
