19
Iteration:   745
 O        -2.894937        -1.049081         1.741209
 C        -1.789182        -1.247436         0.819965
 C        -1.810536        -2.507166        -0.077233
 C        -1.801760        -1.144806        -0.688824
 O        -0.428204        -0.939091        -1.013794
 C         0.386175        -0.542702         0.157200
 C         1.265520         0.619053         0.003647
 C         1.804105        -0.809284        -0.154251
 C        -0.408930        -0.763068         1.397458
 H        -3.433050        -1.875428         1.653140
 H        -0.975353        -3.226394        -0.208494
 H        -2.725386        -3.065481        -0.131331
 H        -2.381077        -0.437199        -1.297772
 H         1.119913         1.104701        -0.958832
 H         1.457260         1.192367         0.779184
 H         1.876026        -1.146164        -1.230425
 H         2.355313        -1.341493         0.549529
 H        -0.022440        -1.421065         2.096606
 H        -0.651079         0.174142         1.925385
