19
Iteration:   770
 O        -2.828876        -1.014979         1.661743
 C        -1.753883        -1.394804         0.882780
 C        -1.986442        -2.569283        -0.010606
 C        -1.742985        -1.139843        -0.593001
 O        -0.480188        -0.883459        -1.130460
 C         0.382602        -0.471057         0.053983
 C         1.319681         0.658545        -0.056831
 C         1.825743        -0.761181        -0.018677
 C        -0.434715        -0.847939         1.336364
 H        -3.325988        -1.820050         1.959897
 H        -1.364515        -3.412581        -0.060703
 H        -3.063952        -2.852340        -0.089389
 H        -2.412107        -0.516382        -1.239045
 H         1.407853         1.286331        -0.945111
 H         1.542562         1.293825         0.958672
 H         2.287283        -1.259919        -0.852738
 H         2.347819        -1.016945         0.949527
 H         0.144652        -1.603516         1.997769
 H        -0.745214        -0.013931         1.990216
