19
Iteration:  2847
 O        -2.976526        -0.983341         1.718411
 C        -1.849767        -1.370625         0.847418
 C        -1.862694        -2.537731        -0.078375
 C        -1.816665        -1.200635        -0.684924
 O        -0.477580        -0.666854        -1.006093
 C         0.394145        -0.545382         0.060696
 C         1.412978         0.561346        -0.021613
 C         1.855214        -0.885203        -0.015166
 C        -0.433191        -0.834782         1.272102
 H        -2.928151        -1.648346         2.462314
 H        -0.972427        -3.203118         0.065836
 H        -2.832576        -3.083729        -0.210966
 H        -2.468554        -0.856220        -1.539593
 H         1.698643         1.122772        -1.010995
 H         1.503422         1.144379         0.838043
 H         2.271009        -1.342384        -0.976059
 H         2.468007        -1.205055         0.855629
 H         0.017174        -1.497442         2.129716
 H        -0.708521         0.138468         1.730075
