19
Iteration:  1250
 O        -2.744172        -0.627569         1.622601
 C        -1.771917        -1.348620         0.928307
 C        -2.303908        -2.554633        -0.079321
 C        -1.676129        -1.277962        -0.699866
 O        -0.316294        -1.085315        -1.029032
 C         0.495723        -0.671703         0.158487
 C         0.959330         0.762088         0.032944
 C         1.961462        -0.366460        -0.123239
 C        -0.281862        -1.341304         1.377866
 H        -3.429562        -1.204741         2.033525
 H        -1.853973        -3.512893        -0.252632
 H        -3.317057        -2.720533        -0.016046
 H        -2.401699        -0.753156        -1.365721
 H         0.588134         1.317616        -0.893626
 H         1.093618         1.340810         1.008341
 H         2.221255        -0.600046        -1.187342
 H         2.705262        -0.436122         0.646757
 H         0.219692        -2.372534         1.492235
 H        -0.244816        -0.665798         2.201022
