19
Iteration:  3360
 O        -2.874609        -0.817044         1.574263
 C        -1.821301        -1.300710         0.792925
 C        -2.122165        -2.545541        -0.009423
 C        -1.659526        -1.046491        -0.623216
 O        -0.355363        -1.013648        -1.022937
 C         0.446886        -0.661690         0.134544
 C         1.040824         0.675994        -0.019687
 C         1.961032        -0.584529        -0.072844
 C        -0.356355        -1.157230         1.413977
 H        -2.948615        -1.573398         2.203292
 H        -1.336632        -3.319301        -0.162455
 H        -3.209208        -2.744466        -0.140997
 H        -2.352940        -0.527859        -1.253770
 H         0.747951         1.194740        -0.960725
 H         1.296764         1.356923         0.816930
 H         2.454144        -0.881429        -1.089387
 H         2.662954        -0.715115         0.763984
 H        -0.080173        -2.169004         1.668202
 H        -0.234147        -0.484251         2.240559
