19
Iteration:  3874
 O        -2.949192        -1.189753         1.590103
 C        -1.718508        -1.309868         0.876665
 C        -1.712072        -2.504488        -0.045452
 C        -1.753784        -1.152606        -0.651257
 O        -0.513976        -0.607305        -1.076093
 C         0.330247        -0.417785         0.155802
 C         1.449466         0.447235        -0.101523
 C         1.691256        -1.105473        -0.008185
 C        -0.526022        -0.556220         1.411403
 H        -3.126860        -2.026826         2.134853
 H        -0.795154        -3.107516        -0.063941
 H        -2.621946        -3.062493        -0.036369
 H        -2.618433        -0.749328        -1.241883
 H         1.789833         0.907123        -1.086685
 H         1.711657         1.053261         0.750331
 H         1.653322        -1.577700        -0.956982
 H         2.228877        -1.422246         0.917523
 H         0.106337        -1.049659         2.173142
 H        -0.857430         0.388203         1.835638
