19
Iteration:  1820charge 0 multiplicity 1
 O        -2.913863        -1.254844         1.566026
 C        -1.693632        -1.244096         0.851504
 C        -1.516161        -2.419100        -0.035267
 C        -1.757044        -1.110544        -0.644144
 O        -0.544006        -0.523752        -0.980136
 C         0.267027        -0.390115         0.144880
 C         1.415409         0.369367        -0.145217
 C         1.531556        -1.232148         0.006749
 C        -0.513038        -0.499865         1.394022
 H        -2.912098        -2.070155         2.111123
 H        -0.557647        -3.147707        -0.041608
 H        -2.413180        -3.145210         0.104679
 H        -2.603242        -0.982747        -1.398334
 H         1.572256         0.796562        -1.198615
 H         1.815807         0.796258         0.793236
 H         1.740168        -1.779467        -1.003716
 H         2.104186        -1.718244         0.797486
 H        -0.023460        -1.038819         2.276315
 H        -1.021327         0.482944         1.617744
