19
Iteration:  3616charge 0 multiplicity 1
 O        -2.881061        -0.757274         1.537658
 C        -1.759751        -1.273908         0.806012
 C        -2.007920        -2.499121         0.022205
 C        -1.763073        -1.196588        -0.640355
 O        -0.355354        -1.003191        -1.027869
 C         0.415283        -0.660626         0.114223
 C         1.124866         0.753292         0.119354
 C         1.837093        -0.604060        -0.080932
 C        -0.332229        -1.227933         1.306595
 H        -2.960647        -1.191791         2.424753
 H        -1.237974        -3.202135        -0.290782
 H        -3.013428        -2.948564         0.016401
 H        -2.455467        -0.630885        -1.360216
 H         0.735684         1.215615        -0.837071
 H         1.306850         1.326781         1.107462
 H         2.160899        -0.868913        -1.130512
 H         2.570803        -0.906124         0.655996
 H         0.057615        -2.198382         1.586138
 H        -0.358382        -0.516003         2.205482
