19
Iteration:  3107
 O        -2.988720        -0.989328         1.560427
 C        -1.758259        -1.327227         0.886625
 C        -1.604020        -2.645551         0.030658
 C        -1.718998        -1.164753        -0.677001
 O        -0.575699        -0.545267        -1.037586
 C         0.294279        -0.478350         0.139827
 C         1.467214         0.460988        -0.025185
 C         1.669073        -1.000240        -0.157740
 C        -0.490775        -0.752409         1.410929
 H        -2.917141        -1.426667         2.434532
 H        -0.744558        -3.260287         0.206996
 H        -2.503134        -3.155095        -0.232955
 H        -2.541963        -1.156148        -1.445845
 H         1.539085         1.178287        -0.772154
 H         1.790042         0.945774         0.887114
 H         1.714885        -1.505526        -1.123293
 H         2.174084        -1.502801         0.647330
 H         0.074010        -1.412071         2.045345
 H        -0.674875         0.155335         1.988004
