19
Iteration:  4369
 O        -2.917623        -1.299999         1.598483
 C        -1.790564        -1.228800         0.878960
 C        -1.424335        -2.443602        -0.037205
 C        -1.706618        -1.114340        -0.670103
 O        -0.601146        -0.395314        -0.973105
 C         0.255630        -0.490886         0.124134
 C         1.522293         0.277657        -0.216277
 C         1.571345        -1.325787         0.148822
 C        -0.629473        -0.344127         1.315516
 H        -3.066579        -2.221198         1.968505
 H        -0.379954        -2.664281        -0.109056
 H        -2.082011        -3.248816        -0.357027
 H        -2.654773        -0.975480        -1.416287
 H         1.803768         0.470954        -1.229561
 H         1.569164         0.992243         0.712515
 H         1.739174        -2.039750        -0.693297
 H         2.012946        -1.466721         1.175381
 H        -0.133965        -0.975371         2.030121
 H        -0.904162         0.708436         1.691960
