19
Iteration:   415
 O        -2.939111        -1.017579         1.669312
 C        -1.722806        -1.347616         0.889394
 C        -1.777786        -2.667977         0.119788
 C        -1.827434        -1.131986        -0.551159
 O        -0.505890        -0.842587        -1.134356
 C         0.351897        -0.534045         0.044244
 C         1.323437         0.507249         0.050508
 C         1.871291        -0.814620        -0.201787
 C        -0.453296        -0.599460         1.307928
 H        -3.596800        -1.680931         1.402123
 H        -0.749769        -3.076299        -0.086562
 H        -2.533399        -3.434361         0.234280
 H        -2.683556        -0.789162        -1.094815
 H         1.488243         1.249585        -0.782238
 H         1.398451         0.899594         1.083460
 H         1.996807        -1.105851        -1.218048
 H         2.632621        -1.281385         0.570794
 H        -0.059100        -1.037319         2.174319
 H        -0.767894         0.482570         1.554083
