19
Iteration:   291
 O        -2.845073        -0.959594         1.807161
 C        -1.801431        -1.258749         0.796493
 C        -1.847004        -2.520032         0.036506
 C        -1.704901        -1.346891        -0.767661
 O        -0.414843        -0.932616        -1.059600
 C         0.340652        -0.558873         0.096773
 C         1.284140         0.650053         0.061842
 C         1.810507        -0.755422        -0.207648
 C        -0.518111        -0.749630         1.323618
 H        -3.461514        -1.681457         1.883172
 H        -1.134248        -3.160116         0.207350
 H        -2.834314        -2.767811         0.217731
 H        -2.404543        -0.767090        -1.417336
 H         1.222581         1.395977        -0.748871
 H         1.377721         0.967750         1.088970
 H         1.953019        -1.064536        -1.262829
 H         2.532563        -1.170428         0.425631
 H         0.035146        -1.610257         1.783626
 H        -0.698248         0.010227         2.086336
