19
Iteration:  2841charge 0 multiplicity 1
 O        -2.993510        -0.995327         1.703791
 C        -1.787438        -1.296903         0.870890
 C        -1.890702        -2.547687        -0.068519
 C        -1.786490        -1.220058        -0.677589
 O        -0.510719        -0.680775        -0.983728
 C         0.440325        -0.558333         0.005272
 C         1.367369         0.577655        -0.020481
 C         1.856431        -0.936074         0.015750
 C        -0.426671        -0.814988         1.282950
 H        -2.951256        -1.747748         2.331614
 H        -1.061618        -3.220124        -0.181995
 H        -2.737919        -3.102176        -0.430392
 H        -2.549057        -0.799864        -1.392572
 H         1.540264         1.094153        -0.893850
 H         1.474273         1.287045         0.869734
 H         2.204458        -1.284879        -0.901706
 H         2.422055        -1.195945         0.883497
 H         0.147832        -1.435628         1.889250
 H        -0.512919         0.187641         1.712225
