19
Iteration:  3759charge 0 multiplicity 1
 O        -2.930028        -0.848857         1.438369
 C        -1.787638        -1.429343         0.891619
 C        -2.000956        -2.647722         0.031454
 C        -1.717448        -1.236314        -0.558651
 O        -0.507905        -0.724880        -1.062238
 C         0.429992        -0.575601         0.161925
 C         1.417656         0.688393         0.069727
 C         1.848951        -0.753129        -0.154911
 C        -0.407689        -0.993293         1.352433
 H        -3.000605        -1.072302         2.422813
 H        -1.308411        -3.493057         0.038192
 H        -2.916350        -3.119086        -0.302356
 H        -2.516459        -0.843579        -0.967375
 H         1.202395         1.363343        -0.807739
 H         1.334678         1.091909         1.049552
 H         1.993580        -1.125239        -1.192041
 H         2.650876        -0.949387         0.533504
 H         0.164296        -1.694983         1.927042
 H        -0.799922        -0.205204         2.052021
