19
Iteration:   943
 O        -2.862695        -0.925897         1.664866
 C        -1.751356        -1.407686         0.840842
 C        -2.088625        -2.586946        -0.094634
 C        -1.742274        -1.135115        -0.623338
 O        -0.456332        -0.872222        -1.028866
 C         0.430866        -0.596034         0.086188
 C         1.145040         0.744795        -0.071674
 C         1.924988        -0.698307         0.025362
 C        -0.305185        -1.010782         1.315541
 H        -3.012581        -1.170549         2.568300
 H        -1.259477        -3.339486        -0.280185
 H        -3.132309        -2.758222        -0.081678
 H        -2.531273        -0.727082        -1.260858
 H         1.207936         0.954039        -1.167740
 H         1.079742         1.545522         0.741225
 H         2.496821        -0.922358        -0.943650
 H         2.349170        -1.193162         0.991134
 H         0.201453        -1.788369         1.867407
 H        -0.464076        -0.147895         1.951919
