19
Iteration:   117charge 0 multiplicity 1
 O        -2.859837        -1.152105         1.655139
 C        -1.801419        -1.315513         0.787928
 C        -1.475952        -2.581578         0.078389
 C        -1.674493        -1.197734        -0.624977
 O        -0.625271        -0.453764        -1.047573
 C         0.280122        -0.418774         0.090835
 C         1.470477         0.416412        -0.239745
 C         1.624155        -1.081189         0.012398
 C        -0.637296        -0.611244         1.379619
 H        -2.875497        -1.950948         2.220973
 H        -0.588254        -3.054052         0.449004
 H        -2.221642        -3.191050        -0.185830
 H        -2.561061        -1.264387        -1.242282
 H         1.524704         0.878783        -1.200960
 H         1.908457         1.061457         0.501538
 H         1.764893        -1.872888        -0.749457
 H         1.864841        -1.281150         1.025906
 H        -0.116160        -1.054590         2.160447
 H        -1.179835         0.315834         1.784447
