19
Iteration:  4804
 O        -2.936302        -0.641378         1.529869
 C        -1.848383        -1.401295         0.861154
 C        -1.969784        -2.675993        -0.047583
 C        -1.743370        -1.278426        -0.593238
 O        -0.469111        -0.817270        -1.006120
 C         0.380803        -0.575666         0.094285
 C         1.221498         0.647585         0.063343
 C         1.926395        -0.714682        -0.053989
 C        -0.336692        -1.135301         1.281194
 H        -2.665013        -0.695223         2.476692
 H        -1.105688        -3.355869         0.123778
 H        -2.893593        -3.221843        -0.305705
 H        -2.579062        -0.768509        -1.085391
 H         1.179228         1.288143        -0.876604
 H         1.333093         1.388494         0.781938
 H         2.338241        -0.926656        -1.121154
 H         2.492524        -1.028847         0.851880
 H         0.183216        -1.990640         1.817911
 H        -0.179057        -0.337929         1.992425
