19
Iteration:   892charge 0 multiplicity 1
 O        -2.852832        -0.875508         1.629891
 C        -1.763856        -1.290651         0.869084
 C        -1.990679        -2.536896         0.002527
 C        -1.688498        -1.262539        -0.608631
 O        -0.432308        -0.855619        -1.045409
 C         0.342921        -0.570091         0.049095
 C         1.175717         0.629457         0.056248
 C         1.844426        -0.677984        -0.112819
 C        -0.372716        -1.020849         1.342070
 H        -3.322559        -1.660922         1.973708
 H        -1.188679        -3.283375         0.050014
 H        -2.973845        -2.870202        -0.245487
 H        -2.504611        -0.854278        -1.109531
 H         1.116087         1.300156        -0.919123
 H         1.301169         1.429000         0.901363
 H         2.272987        -0.894035        -1.119381
 H         2.559671        -1.140456         0.469965
 H         0.225929        -1.936098         1.686700
 H        -0.300547        -0.230302         2.093964
