19
Iteration:  3915
 O        -3.075736        -1.183251         1.573268
 C        -1.837865        -1.368693         0.876257
 C        -1.402920        -2.555547         0.060245
 C        -1.696196        -1.165040        -0.614940
 O        -0.641525        -0.365561        -1.024717
 C         0.284423        -0.384630         0.053439
 C         1.561229         0.329622        -0.050335
 C         1.663716        -1.221815        -0.071030
 C        -0.577326        -0.517860         1.330009
 H        -2.973507        -1.354576         2.522455
 H        -0.304552        -2.784369         0.035234
 H        -2.154451        -3.320459        -0.119073
 H        -2.694206        -1.253959        -1.248762
 H         1.822580         0.923233        -0.932341
 H         2.109490         0.727250         0.769469
 H         1.807647        -1.627930        -1.053715
 H         2.233446        -1.931365         0.659921
 H        -0.055604        -0.963427         2.222347
 H        -1.081390         0.391108         1.662992
