19
Iteration:  1846
 O        -2.983330        -1.146362         1.664306
 C        -1.782056        -1.354189         0.883448
 C        -1.674169        -2.620305        -0.026773
 C        -1.777222        -1.180415        -0.645202
 O        -0.547731        -0.510772        -1.134383
 C         0.323602        -0.397765         0.100163
 C         1.557761         0.442792         0.017235
 C         1.707593        -1.091629        -0.080444
 C        -0.547780        -0.549832         1.348365
 H        -3.030946        -1.910651         2.266889
 H        -0.801404        -3.151801         0.007676
 H        -2.524372        -3.247954        -0.004437
 H        -2.716098        -0.847704        -1.058283
 H         1.695198         0.785218        -0.956305
 H         2.043821         0.912930         0.864724
 H         2.075096        -1.430410        -0.981931
 H         2.261322        -1.625452         0.701514
 H        -0.046470        -1.008093         2.172716
 H        -0.970057         0.468545         1.645005
