19
Iteration:  3592
 O        -2.764722        -0.673774         1.579305
 C        -1.793173        -1.388065         0.821718
 C        -2.132445        -2.606834         0.006025
 C        -1.683335        -1.251296        -0.633103
 O        -0.377209        -0.933757        -1.150623
 C         0.431392        -0.634219         0.017705
 C         1.016769         0.697041         0.152579
 C         1.955361        -0.578529        -0.052032
 C        -0.345750        -1.166557         1.383660
 H        -3.174374        -1.242531         2.294694
 H        -1.663121        -3.579313         0.221468
 H        -3.179736        -2.762056        -0.211657
 H        -2.412818        -0.602678        -1.318223
 H         0.851987         1.411198        -0.698374
 H         0.863460         1.049403         1.186545
 H         2.510970        -0.553965        -1.034721
 H         2.528705        -0.946034         0.733620
 H         0.161837        -2.095919         1.702891
 H        -0.400815        -0.410292         2.199598
