19
Iteration:  4569
 O        -2.884992        -0.894853         1.569152
 C        -1.800122        -1.276162         0.807322
 C        -1.933833        -2.591562         0.074186
 C        -1.701139        -1.191195        -0.696179
 O        -0.431428        -0.766505        -1.046979
 C         0.364444        -0.562495         0.068892
 C         1.256107         0.597498         0.026631
 C         1.801123        -0.841139        -0.028492
 C        -0.394158        -0.913569         1.365345
 H        -3.088838        -1.654392         2.112495
 H        -1.363474        -3.519335         0.145295
 H        -3.021270        -2.869526         0.083369
 H        -2.457965        -0.750258        -1.325858
 H         1.305523         1.011934        -0.938337
 H         1.306012         1.300486         0.884349
 H         2.064873        -0.924966        -1.092603
 H         2.447325        -1.400761         0.677440
 H         0.167503        -1.728628         1.840805
 H        -0.215051        -0.127781         2.144406
