19
Iteration:  1880charge 0 multiplicity 1
 O        -2.992585        -0.987373         1.583530
 C        -1.797790        -1.304614         0.844240
 C        -1.642499        -2.626000         0.021373
 C        -1.734492        -1.240432        -0.601323
 O        -0.591010        -0.474875        -1.042114
 C         0.335573        -0.578838         0.022804
 C         1.394236         0.473081         0.060549
 C         1.710990        -1.026339        -0.102934
 C        -0.411719        -0.740176         1.301949
 H        -2.973588        -1.521740         2.379476
 H        -0.763453        -3.134680         0.152023
 H        -2.512114        -3.173363        -0.199639
 H        -2.589963        -0.980608        -1.144324
 H         1.452597         1.235713        -0.760286
 H         1.839546         0.861433         0.929344
 H         2.200133        -1.346723        -1.017994
 H         2.111979        -1.332459         0.839715
 H         0.040805        -1.447852         1.974249
 H        -0.540873         0.170598         1.919947
