19
Iteration:  3977charge 0 multiplicity 1
 O        -3.054771        -1.206097         1.553471
 C        -1.819043        -1.265488         0.883503
 C        -1.372186        -2.491233         0.032628
 C        -1.664164        -1.260073        -0.612550
 O        -0.655760        -0.348082        -0.990041
 C         0.337742        -0.447285         0.110348
 C         1.592353         0.336878        -0.117197
 C         1.545383        -1.237680        -0.106056
 C        -0.585996        -0.485752         1.410591
 H        -3.374957        -1.996988         1.996388
 H        -0.347490        -2.866729         0.276094
 H        -2.004074        -3.369989        -0.109501
 H        -2.505653        -0.961885        -1.366075
 H         1.807019         0.717523        -1.077631
 H         2.118020         0.689643         0.787653
 H         1.659707        -1.694155        -1.052431
 H         1.844632        -1.837770         0.807086
 H        -0.017853        -0.720689         2.309335
 H        -1.041796         0.534580         1.501441
