19
Iteration:  4151charge 0 multiplicity 1
 O        -2.946889        -0.897581         1.556615
 C        -1.763547        -1.350814         0.834762
 C        -1.884683        -2.646353         0.002782
 C        -1.706015        -1.207678        -0.631169
 O        -0.488010        -0.653945        -1.079151
 C         0.380583        -0.533682         0.164239
 C         1.336332         0.571601        -0.006696
 C         1.808959        -0.902107        -0.013483
 C        -0.437807        -0.887151         1.316222
 H        -3.088999        -1.544324         2.263280
 H        -1.093702        -3.344225        -0.068507
 H        -2.915602        -2.967672         0.073902
 H        -2.565837        -0.758849        -0.983875
 H         1.286583         1.081461        -1.047846
 H         1.570443         1.207819         0.785206
 H         2.215209        -1.261274        -0.999728
 H         2.345846        -1.315812         0.828869
 H         0.193302        -1.476348         1.955948
 H        -0.606880         0.088383         1.850485
