19
Iteration:  2199
 O        -3.012172        -1.217367         1.568055
 C        -1.747997        -1.346295         0.906592
 C        -1.495880        -2.552089         0.103448
 C        -1.705755        -1.188082        -0.611858
 O        -0.651583        -0.341552        -1.080780
 C         0.277515        -0.309743         0.063286
 C         1.736301         0.310915        -0.067658
 C         1.518586        -1.124235        -0.072904
 C        -0.599255        -0.588907         1.335545
 H        -3.083612        -1.990282         2.146610
 H        -0.500451        -2.997006        -0.033596
 H        -2.292073        -3.279857        -0.053172
 H        -2.654651        -0.907374        -1.018336
 H         1.879109         0.714741        -1.119495
 H         2.180551         0.705326         0.807153
 H         1.626933        -1.812922        -0.918951
 H         1.717074        -1.507830         0.902482
 H         0.117347        -1.248176         1.984789
 H        -0.992503         0.270156         1.926141
