19
Iteration:  2774
 O        -3.026474        -0.953157         1.627945
 C        -1.887139        -1.343280         0.886736
 C        -1.798406        -2.601847        -0.048587
 C        -1.660285        -1.267296        -0.641395
 O        -0.511199        -0.566836        -1.054839
 C         0.356983        -0.561756         0.159177
 C         1.436632         0.521557        -0.042868
 C         1.877343        -0.902703        -0.178249
 C        -0.499030        -0.842972         1.459000
 H        -3.134908        -1.486971         2.420139
 H        -1.009688        -3.337685         0.105745
 H        -2.751657        -3.024839        -0.182564
 H        -2.464950        -0.839935        -1.459154
 H         1.425909         1.272538        -0.931577
 H         1.786672         1.045963         0.779323
 H         2.117783        -1.245394        -1.179468
 H         2.588582        -1.355188         0.397967
 H         0.111179        -1.401192         2.129560
 H        -0.796758         0.083155         1.927630
