19
Iteration:  1609charge 0 multiplicity 1
 O        -2.986521        -0.931767         1.637144
 C        -1.822240        -1.368199         0.852618
 C        -1.926376        -2.640546         0.102161
 C        -1.734289        -1.205639        -0.591942
 O        -0.417256        -0.708337        -1.150716
 C         0.395068        -0.513543         0.076200
 C         1.331497         0.659798         0.025025
 C         1.865070        -0.859448        -0.137589
 C        -0.446060        -0.908597         1.331039
 H        -3.289733        -1.679361         2.214623
 H        -1.135085        -3.317327         0.327860
 H        -2.840091        -2.966450        -0.150414
 H        -2.530467        -0.614483        -1.181471
 H         1.274650         1.410639        -0.808404
 H         1.688302         1.094801         0.931023
 H         2.382637        -1.220111        -1.053164
 H         2.476210        -1.308733         0.564212
 H         0.197321        -1.697753         1.839503
 H        -0.529558        -0.016046         1.940657
