19
Iteration:  1184charge 0 multiplicity 1
 O        -2.752049        -0.656824         1.641198
 C        -1.771926        -1.268225         0.850700
 C        -2.076678        -2.578458        -0.040388
 C        -1.669046        -1.288394        -0.613124
 O        -0.407153        -0.951421        -1.143097
 C         0.412204        -0.725205         0.047077
 C         0.925382         0.680230         0.112016
 C         1.914991        -0.549087        -0.076299
 C        -0.300048        -1.179969         1.336718
 H        -2.955596        -1.198041         2.432238
 H        -1.359063        -3.375492         0.084748
 H        -3.037283        -2.889871        -0.273476
 H        -2.365607        -0.826330        -1.336420
 H         0.635166         1.301833        -0.783397
 H         0.915486         1.246735         1.134793
 H         2.468378        -0.826329        -0.928287
 H         2.553595        -0.802318         0.837456
 H        -0.066390        -2.229268         1.729653
 H        -0.262332        -0.352377         2.028147
