19
Iteration:   874
 O        -2.891720        -0.829466         1.559062
 C        -1.797418        -1.437896         0.870968
 C        -2.003448        -2.667341         0.105622
 C        -1.812510        -1.173593        -0.659595
 O        -0.464561        -0.841923        -1.090843
 C         0.465855        -0.645062         0.101374
 C         1.253368         0.737536         0.123147
 C         1.943040        -0.638231        -0.239629
 C        -0.346720        -0.998182         1.381215
 H        -3.363265        -1.637519         1.830224
 H        -1.299079        -3.471087         0.039052
 H        -3.140235        -2.906885         0.197227
 H        -2.600109        -0.651489        -1.242206
 H         1.092710         1.491005        -0.609407
 H         1.485108         0.998979         1.072137
 H         2.174289        -0.898786        -1.291554
 H         2.571906        -1.032069         0.562047
 H         0.064996        -1.785520         2.019190
 H        -0.516689        -0.084606         2.031809
