19
Iteration:  1334charge 0 multiplicity 1
 O        -2.741405        -0.645699         1.699248
 C        -1.819570        -1.402494         0.875623
 C        -2.238586        -2.559752        -0.037106
 C        -1.730102        -1.251557        -0.683902
 O        -0.299816        -1.118505        -1.112443
 C         0.422811        -0.604511         0.083189
 C         1.016866         0.795288         0.050464
 C         1.951835        -0.447233        -0.075840
 C        -0.336266        -1.269500         1.319135
 H        -3.393119        -1.307060         2.024307
 H        -1.573436        -3.471988        -0.065202
 H        -3.298333        -2.672167        -0.204687
 H        -2.370884        -0.591507        -1.189833
 H         0.784592         1.509898        -0.795648
 H         1.041144         1.333245         1.025388
 H         2.672756        -0.762934        -0.915934
 H         2.609027        -0.723264         0.799171
 H         0.243634        -2.096405         1.584128
 H        -0.061172        -0.711640         2.270235
