19
Iteration:   280charge 0 multiplicity 1
 O        -2.804410        -0.943239         1.793178
 C        -1.881978        -1.263244         0.846344
 C        -1.879953        -2.599974         0.060496
 C        -1.733467        -1.273155        -0.749422
 O        -0.440735        -0.920849        -1.102111
 C         0.336328        -0.508413         0.068604
 C         1.323926         0.637112         0.043264
 C         1.859806        -0.715693        -0.133469
 C        -0.504881        -0.835560         1.295024
 H        -3.253468        -1.746621         2.092223
 H        -1.224908        -3.358260         0.046651
 H        -2.857080        -3.006904        -0.025692
 H        -2.513575        -0.974878        -1.512321
 H         1.387888         1.345176        -0.796924
 H         1.521638         1.151758         0.969610
 H         2.124412        -0.901540        -1.167891
 H         2.415581        -1.218727         0.622229
 H        -0.119293        -1.498189         2.081275
 H        -0.602330         0.145021         1.767973
