19
Iteration:  2457charge 0 multiplicity 1
 O        -3.028157        -0.944939         1.566174
 C        -1.823163        -1.334298         0.855275
 C        -1.844687        -2.607565        -0.048911
 C        -1.881898        -1.160803        -0.545804
 O        -0.526369        -0.800507        -1.056558
 C         0.399662        -0.546947         0.032933
 C         1.450000         0.608230         0.119698
 C         1.903378        -0.831045        -0.148944
 C        -0.390045        -0.854923         1.336233
 H        -3.030396        -1.491158         2.387059
 H        -1.021516        -3.297784        -0.178365
 H        -2.808482        -3.192213         0.022939
 H        -2.584479        -0.610126        -0.965812
 H         1.517349         1.316630        -0.745157
 H         1.797239         1.093263         1.059801
 H         2.325531        -1.094584        -1.153566
 H         2.545623        -1.204033         0.675978
 H         0.099723        -1.613649         1.974733
 H        -0.547788         0.154208         1.858347
