19
Iteration:  3300charge 0 multiplicity 1
 O        -2.785007        -0.772070         1.618271
 C        -1.766206        -1.394776         0.814699
 C        -2.078724        -2.533580        -0.000575
 C        -1.747967        -1.208038        -0.718466
 O        -0.431745        -0.905723        -1.097965
 C         0.427911        -0.674738         0.139152
 C         1.146103         0.731658         0.050930
 C         1.905064        -0.638953        -0.010303
 C        -0.389336        -1.114320         1.379979
 H        -3.033058        -1.465514         2.312159
 H        -1.486985        -3.337741        -0.257828
 H        -3.044542        -2.855731        -0.305465
 H        -2.431045        -0.720135        -1.386258
 H         1.129768         1.216415        -0.932911
 H         1.365633         1.297213         0.875202
 H         2.139892        -0.945165        -1.016660
 H         2.473765        -1.031957         0.776599
 H         0.036806        -1.793330         2.145093
 H        -0.448764        -0.121479         1.901708
