19
Iteration:   873
 O        -2.894172        -0.827464         1.555825
 C        -1.797459        -1.452515         0.870797
 C        -2.005815        -2.666651         0.110450
 C        -1.822083        -1.170963        -0.665260
 O        -0.460290        -0.841320        -1.091071
 C         0.472933        -0.652378         0.096391
 C         1.257003         0.734117         0.128672
 C         1.935169        -0.633067        -0.238508
 C        -0.355140        -0.993728         1.382595
 H        -3.382712        -1.601495         1.850038
 H        -1.280543        -3.465499         0.046612
 H        -3.126612        -2.926224         0.202683
 H        -2.592330        -0.656507        -1.211807
 H         1.083094         1.556912        -0.601787
 H         1.546792         1.044942         1.104840
 H         2.204450        -0.934864        -1.288395
 H         2.597975        -1.023777         0.489738
 H         0.102904        -1.800830         2.022699
 H        -0.503014        -0.064048         2.024650
