19
Iteration:  4068charge 0 multiplicity 1
 O        -2.974047        -0.945090         1.569225
 C        -1.855666        -1.361939         0.882556
 C        -1.730696        -2.606738         0.013819
 C        -1.786563        -1.196676        -0.667278
 O        -0.555584        -0.592616        -1.052881
 C         0.329617        -0.575329         0.075636
 C         1.480784         0.547527         0.055686
 C         1.823945        -0.969115        -0.020238
 C        -0.473707        -0.781030         1.291848
 H        -3.007463        -1.435083         2.441257
 H        -0.886894        -3.255744        -0.009541
 H        -2.595112        -3.252534        -0.086937
 H        -2.506979        -0.977006        -1.357127
 H         1.508762         1.114415        -0.829561
 H         1.682028         1.147330         0.900168
 H         2.056762        -1.289814        -1.057351
 H         2.222573        -1.497512         0.843262
 H         0.233514        -1.412182         1.864555
 H        -0.505292         0.194409         1.744483
