19
Iteration:  4914charge 0 multiplicity 1
 O        -2.809345        -0.944291         1.722448
 C        -1.753346        -1.168504         0.800558
 C        -2.061352        -2.475550        -0.040374
 C        -1.632286        -1.161979        -0.659136
 O        -0.333588        -0.951949        -1.108852
 C         0.327830        -0.620090         0.147115
 C         1.104979         0.657934        -0.128962
 C         1.791809        -0.698073         0.021732
 C        -0.378188        -1.066127         1.407144
 H        -3.566646        -0.795382         1.154571
 H        -1.318830        -3.266178         0.232500
 H        -3.158626        -2.735316         0.085878
 H        -2.489982        -0.639552        -1.286078
 H         1.095683         1.081052        -1.090915
 H         1.419819         1.351955         0.702307
 H         2.326988        -1.327335        -0.682622
 H         2.561715        -1.064376         0.888179
 H         0.017282        -2.103518         1.712566
 H        -0.197075        -0.370368         2.193497
