19
Iteration:  3359charge 0 multiplicity 1
 O        -2.880203        -0.818495         1.575847
 C        -1.814386        -1.303258         0.802376
 C        -2.117330        -2.544254        -0.015471
 C        -1.657463        -1.041151        -0.623859
 O        -0.358238        -1.017181        -1.020229
 C         0.444300        -0.660971         0.131331
 C         1.050994         0.679405        -0.023298
 C         1.952727        -0.583357        -0.075707
 C        -0.361949        -1.162675         1.411100
 H        -2.942880        -1.555348         2.195429
 H        -1.339596        -3.337794        -0.150490
 H        -3.203810        -2.745633        -0.110964
 H        -2.355356        -0.503509        -1.280426
 H         0.748874         1.167107        -0.969039
 H         1.295280         1.378077         0.831573
 H         2.475882        -0.870436        -1.046413
 H         2.681325        -0.718209         0.771004
 H        -0.086429        -2.170633         1.662077
 H        -0.228124        -0.474576         2.231587
