19
Iteration:  3595charge 0 multiplicity 1
 O        -2.769358        -0.693535         1.567626
 C        -1.805000        -1.381619         0.824290
 C        -2.116291        -2.609528         0.005827
 C        -1.679888        -1.220198        -0.636432
 O        -0.385995        -0.940126        -1.160329
 C         0.410171        -0.653407         0.047480
 C         1.022056         0.703870         0.135147
 C         1.950669        -0.556816        -0.060904
 C        -0.352712        -1.175449         1.385631
 H        -3.080118        -1.235630         2.275686
 H        -1.649518        -3.534904         0.357154
 H        -3.198412        -2.723740        -0.214580
 H        -2.345507        -0.605599        -1.256767
 H         0.942840         1.428697        -0.731624
 H         0.968400         0.984968         1.230723
 H         2.550100        -0.594934        -1.017142
 H         2.554707        -0.981031         0.736684
 H         0.097171        -2.082342         1.763282
 H        -0.304429        -0.393697         2.218407
