19
Iteration:  3762charge 0 multiplicity 1
 O        -2.932806        -0.858388         1.433076
 C        -1.770261        -1.406345         0.891008
 C        -1.970783        -2.656039         0.021978
 C        -1.747770        -1.226654        -0.569846
 O        -0.529270        -0.753796        -1.027017
 C         0.448658        -0.560956         0.168833
 C         1.438001         0.724095         0.070636
 C         1.842877        -0.751514        -0.152067
 C        -0.426309        -0.993069         1.341206
 H        -3.035422        -1.028199         2.363234
 H        -1.303301        -3.500366         0.074570
 H        -2.937614        -3.160858        -0.269495
 H        -2.682206        -0.806953        -1.080464
 H         1.216622         1.347911        -0.750107
 H         1.491941         1.077663         1.081704
 H         2.009524        -1.181815        -1.233257
 H         2.655907        -1.131889         0.444482
 H         0.168054        -1.746723         1.898757
 H        -0.772091        -0.217981         2.009478
