19
Iteration:  3686charge 0 multiplicity 1
 O        -2.856503        -0.879071         1.677398
 C        -1.785946        -1.276201         0.851709
 C        -2.085213        -2.527729        -0.089847
 C        -1.705471        -1.208495        -0.642176
 O        -0.407160        -0.952031        -1.027083
 C         0.375146        -0.607842         0.054710
 C         1.229033         0.698982         0.007376
 C         1.890958        -0.674133         0.032747
 C        -0.339578        -1.012467         1.311992
 H        -3.337509        -1.682847         1.953085
 H        -1.527297        -3.456139        -0.233479
 H        -3.106249        -2.760106        -0.419144
 H        -2.493095        -0.807505        -1.246750
 H         1.105396         1.277777        -0.918967
 H         1.111508         1.234232         0.881275
 H         2.281037        -0.801623        -1.042285
 H         2.541792        -1.045298         0.814852
 H         0.130450        -1.845326         1.888696
 H        -0.238034        -0.116546         1.906722
