19
Iteration:  2501
 O        -2.901538        -1.008871         1.679096
 C        -1.779231        -1.322802         0.794633
 C        -1.775196        -2.577379         0.003347
 C        -1.686991        -1.155617        -0.679252
 O        -0.484413        -0.612371        -1.054571
 C         0.381749        -0.460486         0.143655
 C         1.338319         0.586197        -0.061257
 C         1.665941        -1.045808        -0.030654
 C        -0.467205        -0.832461         1.327336
 H        -3.121814        -1.801228         2.216320
 H        -0.914704        -3.272588        -0.058720
 H        -2.789219        -2.985920        -0.029824
 H        -2.429752        -0.874918        -1.327134
 H         1.359603         1.257995        -1.019825
 H         1.780986         1.029482         0.779235
 H         1.935418        -1.464654        -1.046394
 H         2.146308        -1.252250         0.910876
 H         0.016217        -1.658723         1.904038
 H        -0.747152         0.077100         2.006829
