19
Iteration:  4131
 O        -2.939686        -0.833035         1.485260
 C        -1.825370        -1.422909         0.916286
 C        -1.802720        -2.617622        -0.042630
 C        -1.756497        -1.215026        -0.591953
 O        -0.531807        -0.719770        -0.996575
 C         0.365821        -0.549467         0.056630
 C         1.434713         0.589274         0.000530
 C         1.871741        -0.875797        -0.170991
 C        -0.497396        -0.869437         1.538548
 H        -3.539982        -1.497401         1.937815
 H        -0.877337        -3.135107        -0.049906
 H        -2.673428        -3.131616        -0.400080
 H        -2.536038        -0.882693        -1.151331
 H         1.299265         1.244647        -0.886242
 H         1.649582         1.052533         0.883945
 H         2.064308        -1.226773        -1.265050
 H         2.515134        -1.224871         0.671045
 H         0.045642        -1.542021         2.232335
 H        -0.698803         0.129973         2.033278
