19
Iteration:   700charge 0 multiplicity 1
 O        -2.889279        -0.968544         1.553203
 C        -1.761919        -1.357404         0.834939
 C        -1.840713        -2.670614         0.079026
 C        -1.719160        -1.246478        -0.599253
 O        -0.580669        -0.587940        -1.034600
 C         0.362581        -0.448695         0.094044
 C         1.383039         0.628079        -0.025290
 C         1.770873        -0.905769        -0.115661
 C        -0.406434        -0.841658         1.371436
 H        -3.456064        -1.733595         1.846677
 H        -1.037180        -3.488686         0.222597
 H        -2.776615        -3.245823         0.049978
 H        -2.665069        -1.068207        -1.134714
 H         1.356292         1.083266        -0.964360
 H         1.650313         1.253755         0.739169
 H         2.182244        -1.236995        -1.040310
 H         2.345879        -1.427442         0.721912
 H         0.118856        -1.654731         1.756792
 H        -0.470707        -0.047875         2.133688
