19
Iteration:   252
 O        -2.872687        -0.910414         1.619395
 C        -1.757784        -1.398785         0.953172
 C        -1.875260        -2.616486         0.002345
 C        -1.743324        -1.223839        -0.597969
 O        -0.538520        -0.767492        -1.108103
 C         0.340474        -0.524812        -0.015352
 C         1.254157         0.611285        -0.090687
 C         1.862519        -0.773520         0.051570
 C        -0.370835        -0.881742         1.282171
 H        -3.151099        -1.564708         2.311834
 H        -1.098002        -3.492788        -0.105860
 H        -2.916937        -3.096673         0.106956
 H        -2.614343        -0.625892        -0.897702
 H         1.323340         1.137177        -1.060743
 H         1.268498         1.301344         0.810534
 H         2.443931        -1.180309        -0.879396
 H         2.219637        -1.077669         1.013216
 H         0.220317        -1.552000         1.941439
 H        -0.446547         0.099791         1.850556
