19
Iteration:  3302charge 0 multiplicity 1
 O        -2.777176        -0.774553         1.616183
 C        -1.768496        -1.409290         0.799920
 C        -2.078472        -2.507246        -0.018112
 C        -1.753997        -1.229607        -0.711570
 O        -0.424364        -0.908358        -1.068119
 C         0.423994        -0.666773         0.129174
 C         1.149579         0.728701         0.034445
 C         1.897329        -0.628275        -0.004085
 C        -0.386175        -1.111580         1.378090
 H        -2.998437        -1.459402         2.279704
 H        -1.466178        -3.352751        -0.294164
 H        -3.121262        -2.812506        -0.199017
 H        -2.520473        -0.692113        -1.356300
 H         1.082326         1.206684        -0.959457
 H         1.375146         1.331728         0.909449
 H         2.172786        -0.958063        -0.957377
 H         2.524353        -1.116705         0.824834
 H         0.016495        -1.801303         2.105035
 H        -0.448849        -0.125147         1.884982
