19
Iteration:   524charge 0 multiplicity 1
 O        -2.916365        -1.464428         1.719719
 C        -1.711034        -1.325983         0.871773
 C        -1.503912        -2.537639         0.171084
 C        -1.750236        -1.145116        -0.652604
 O        -0.605029        -0.468181        -1.072003
 C         0.244438        -0.374638         0.009014
 C         1.645849         0.329281        -0.030588
 C         1.524846        -1.137899        -0.139359
 C        -0.602337        -0.310735         1.281394
 H        -3.381645        -0.613421         1.474426
 H        -0.579467        -3.166613         0.236626
 H        -2.466499        -3.163836         0.187039
 H        -2.599663        -1.071536        -1.339519
 H         2.218622         0.935190        -0.795125
 H         1.775615         0.667376         0.994719
 H         1.695350        -1.550141        -1.252206
 H         1.959989        -1.759104         0.642020
 H        -0.120757        -0.647858         2.188811
 H        -1.144165         0.724797         1.476694
