19
Iteration:  2592
 O        -3.001209        -1.212958         1.632107
 C        -1.826688        -1.333950         0.857282
 C        -1.458336        -2.544378         0.026638
 C        -1.688691        -1.186753        -0.672655
 O        -0.605159        -0.394034        -1.008409
 C         0.237788        -0.340143         0.091675
 C         1.666319         0.292113        -0.026067
 C         1.508402        -1.157442        -0.110728
 C        -0.582562        -0.555803         1.295213
 H        -2.731867        -1.600879         2.505778
 H        -0.423071        -2.759520         0.238711
 H        -2.185777        -3.348849        -0.173281
 H        -2.672133        -1.011074        -1.400410
 H         1.888100         0.990688        -0.808481
 H         2.204153         0.532376         0.934686
 H         1.551152        -1.538095        -1.106490
 H         1.961969        -1.668707         0.716101
 H        -0.010917        -1.005219         2.105842
 H        -0.978097         0.451829         1.770427
