19
Iteration:  3373charge 0 multiplicity 1
 O        -2.802682        -0.756150         1.583803
 C        -1.800292        -1.296923         0.829576
 C        -2.154885        -2.492274        -0.008538
 C        -1.743781        -1.236842        -0.693271
 O        -0.286986        -0.967680        -1.056657
 C         0.464948        -0.684988         0.219488
 C         0.980154         0.665253         0.068837
 C         1.942950        -0.560383        -0.118690
 C        -0.292647        -1.140964         1.362637
 H        -3.282740        -1.414854         2.115442
 H        -1.399303        -3.245168        -0.180188
 H        -3.100483        -2.797515        -0.466585
 H        -2.475362        -0.699789        -1.195844
 H         0.814406         1.334583        -0.791246
 H         1.063810         1.114481         1.015191
 H         1.959504        -1.064728        -1.167096
 H         2.612377        -0.849328         0.642868
 H         0.190376        -2.008119         1.838434
 H        -0.502011        -0.416540         2.137001
