19
Iteration:  2823charge 0 multiplicity 1
 O        -2.909922        -1.017224         1.584662
 C        -1.752334        -1.314506         0.879499
 C        -1.834424        -2.541330        -0.055591
 C        -1.798715        -1.105043        -0.562663
 O        -0.510045        -0.722101        -1.164963
 C         0.339782        -0.543267         0.068880
 C         1.336703         0.507358        -0.011585
 C         1.815081        -0.889879        -0.009640
 C        -0.379883        -0.782912         1.394836
 H        -3.168970        -1.841030         2.057894
 H        -0.997768        -3.293292        -0.130041
 H        -2.905719        -2.972121         0.128282
 H        -2.580087        -0.665808        -1.050167
 H         1.406237         1.016667        -0.966121
 H         1.457251         1.215472         0.878764
 H         2.390419        -1.309569        -0.863538
 H         2.153852        -1.435999         0.973619
 H         0.010128        -1.594496         2.081239
 H        -0.571290         0.155141         2.022901
