19
Iteration:  4660charge 0 multiplicity 1
 O        -2.951472        -0.844274         1.613686
 C        -1.832158        -1.291595         0.833664
 C        -1.967098        -2.514067         0.014672
 C        -1.751183        -1.230828        -0.653238
 O        -0.472951        -0.906132        -1.041476
 C         0.426414        -0.569318         0.043864
 C         1.270305         0.594201         0.051006
 C         1.957477        -0.716157        -0.066056
 C        -0.359412        -1.011054         1.312171
 H        -2.964000        -1.223069         2.527700
 H        -1.232280        -3.306645        -0.073766
 H        -2.939380        -2.877477        -0.248729
 H        -2.489965        -0.666819        -1.249465
 H         1.292291         1.251995        -0.865001
 H         1.222047         1.355756         0.882846
 H         2.338885        -0.912512        -1.008474
 H         2.414088        -1.128933         0.802317
 H        -0.072026        -1.994584         1.911747
 H        -0.520976        -0.221783         2.030565
