19
Iteration:  2591charge 0 multiplicity 1
 O        -3.000666        -1.213493         1.628075
 C        -1.828671        -1.331833         0.860373
 C        -1.463328        -2.540733         0.027549
 C        -1.696094        -1.192666        -0.671370
 O        -0.601720        -0.399854        -1.006836
 C         0.250043        -0.343636         0.099707
 C         1.665125         0.297428        -0.027452
 C         1.508148        -1.152130        -0.120160
 C        -0.575640        -0.554582         1.289339
 H        -2.734771        -1.594037         2.509172
 H        -0.433873        -2.715873         0.194474
 H        -2.180312        -3.342196        -0.146659
 H        -2.664241        -1.018952        -1.403932
 H         1.883315         0.981543        -0.775178
 H         2.178696         0.530571         0.964763
 H         1.528577        -1.554675        -1.072611
 H         1.954803        -1.667383         0.694343
 H        -0.034996        -1.011815         2.104202
 H        -0.996841         0.438525         1.793526
