19
Iteration:  1291charge 0 multiplicity 1
 O        -2.676423        -0.671051         1.713687
 C        -1.698305        -1.308542         0.826208
 C        -2.098474        -2.383615        -0.096708
 C        -1.731852        -1.172324        -0.714123
 O        -0.300876        -1.217849        -1.067671
 C         0.396170        -0.705986         0.092179
 C         0.776464         0.765014         0.035142
 C         1.828005        -0.525924        -0.038944
 C        -0.200844        -1.239410         1.404015
 H        -3.485175        -1.257081         1.654331
 H        -1.310790        -3.142672        -0.413739
 H        -3.114076        -2.656444         0.007948
 H        -2.297615        -0.558481        -1.326469
 H         0.517283         1.365737        -0.898501
 H         0.622557         1.239499         1.055637
 H         2.238111        -0.811276        -1.062513
 H         2.424657        -0.791044         0.946716
 H         0.052780        -2.340770         1.552845
 H        -0.057962        -0.575461         2.359313
