19
Iteration:  1055charge 0 multiplicity 1
 O        -2.849884        -0.805355         1.560833
 C        -1.762880        -1.404780         0.916281
 C        -2.021018        -2.611261        -0.005637
 C        -1.842209        -1.254627        -0.609988
 O        -0.482290        -0.937138        -1.087082
 C         0.328154        -0.472974         0.065169
 C         1.310415         0.760950         0.019856
 C         1.901228        -0.642932        -0.032627
 C        -0.309029        -1.128105         1.299793
 H        -2.896795        -1.110610         2.514674
 H        -1.434467        -3.481438        -0.186818
 H        -3.059099        -2.928096        -0.108443
 H        -2.676332        -0.767990        -1.175153
 H         1.305778         1.545543        -0.826345
 H         1.294661         1.392477         1.011425
 H         2.393782        -0.994012        -0.886450
 H         2.363087        -1.005141         0.880775
 H         0.312031        -1.962641         1.613516
 H        -0.353761        -0.360093         2.044063
