19
Iteration:  1172
 O        -2.743739        -0.668057         1.642924
 C        -1.804559        -1.393540         0.844038
 C        -2.053049        -2.578158         0.055357
 C        -1.693935        -1.213368        -0.693278
 O        -0.343319        -0.952109        -1.088366
 C         0.395136        -0.672362         0.076352
 C         1.024929         0.682576         0.039669
 C         1.871804        -0.518659        -0.071686
 C        -0.401223        -1.213976         1.297257
 H        -3.153964        -1.342135         2.188976
 H        -1.448777        -3.456674         0.079066
 H        -3.127858        -2.705268         0.014299
 H        -2.490908        -0.784280        -1.244013
 H         1.070385         1.330337        -0.852701
 H         1.033168         1.255243         1.022606
 H         2.219537        -0.601075        -1.092078
 H         2.550865        -0.843432         0.816384
 H         0.166938        -2.116829         1.737795
 H        -0.296932        -0.517443         2.181061
