19
Iteration:  2977
 O        -2.931020        -1.245922         1.573207
 C        -1.729337        -1.283201         0.872857
 C        -1.472968        -2.510349        -0.075607
 C        -1.838230        -1.180793        -0.586796
 O        -0.667401        -0.403628        -1.012861
 C         0.254639        -0.388047         0.071298
 C         1.604171         0.297760        -0.057515
 C         1.619570        -1.267323         0.047527
 C        -0.588510        -0.445154         1.299860
 H        -2.814049        -1.884286         2.273260
 H        -0.536227        -2.920577        -0.491904
 H        -2.277273        -3.232355        -0.063265
 H        -2.742034        -0.738523        -1.131316
 H         1.886276         0.793479        -0.946935
 H         1.973189         0.792251         0.882798
 H         2.107147        -1.748027        -0.803208
 H         1.829565        -1.671517         1.074279
 H         0.004171        -0.868126         2.171802
 H        -0.871226         0.608914         1.509028
