19
Iteration:  4586charge 0 multiplicity 1
 O        -2.886625        -0.741967         1.523211
 C        -1.768242        -1.432574         0.906910
 C        -1.964649        -2.642777         0.005740
 C        -1.736771        -1.277143        -0.573053
 O        -0.494620        -0.781494        -1.074255
 C         0.378435        -0.513730         0.097091
 C         1.352706         0.653737         0.047154
 C         1.855531        -0.777419        -0.124855
 C        -0.410743        -1.005602         1.367492
 H        -3.428628        -1.393923         1.951348
 H        -1.086424        -3.296365        -0.025698
 H        -2.945180        -3.002292        -0.251275
 H        -2.597985        -0.862374        -1.052846
 H         1.308077         1.416040        -0.751353
 H         1.638828         1.123549         0.971855
 H         2.188023        -1.224451        -1.052862
 H         2.267695        -1.128579         0.862423
 H         0.208122        -1.810929         1.851643
 H        -0.735497        -0.088390         1.894183
