19
Iteration:    63charge 0 multiplicity 1
 O        -2.947470        -1.338088         1.494194
 C        -1.660875        -1.316243         0.961163
 C        -1.355129        -2.547286         0.204543
 C        -1.788134        -1.165197        -0.536621
 O        -0.636430        -0.438076        -1.121803
 C         0.230297        -0.384460         0.066632
 C         1.559951         0.307103        -0.091441
 C         1.517700        -1.215925        -0.099770
 C        -0.637144        -0.336453         1.323209
 H        -2.986569        -1.858771         2.302164
 H        -0.356423        -2.733877        -0.120797
 H        -1.959826        -3.358922         0.276369
 H        -2.794305        -0.888793        -0.876359
 H         1.688424         0.820824        -1.022169
 H         1.989463         0.873340         0.725000
 H         1.684835        -1.589369        -1.168139
 H         2.080803        -1.684815         0.627982
 H        -0.076786        -0.566297         2.179593
 H        -1.147090         0.713921         1.482809
