19
Iteration:   516
 O        -2.923773        -1.414756         1.619752
 C        -1.694916        -1.301344         0.922328
 C        -1.500054        -2.558500         0.172157
 C        -1.752057        -1.146467        -0.615045
 O        -0.629956        -0.476542        -1.060251
 C         0.293998        -0.411476        -0.031516
 C         1.603426         0.377455        -0.009521
 C         1.518969        -1.134367        -0.130991
 C        -0.571469        -0.402714         1.291377
 H        -3.305579        -0.522489         1.841770
 H        -0.507166        -3.012720        -0.014870
 H        -2.493110        -3.193307         0.254778
 H        -2.665550        -1.191570        -1.194572
 H         1.880606         1.029774        -0.740180
 H         2.000346         0.660316         0.942921
 H         1.603331        -1.622800        -1.148863
 H         1.868119        -1.698212         0.705903
 H        -0.016725        -0.483485         2.200979
 H        -1.092823         0.623540         1.316405
