19
Iteration:   189charge 0 multiplicity 1
 O        -2.992388        -0.982614         1.642758
 C        -1.846067        -1.334272         0.831175
 C        -1.793387        -2.639852         0.083411
 C        -1.703614        -1.323179        -0.656768
 O        -0.504514        -0.691508        -1.061310
 C         0.408210        -0.527147         0.132648
 C         1.406908         0.618435        -0.009773
 C         1.831908        -0.863947        -0.292321
 C        -0.460528        -0.691002         1.473528
 H        -3.179076        -1.841846         2.130574
 H        -0.909156        -3.392795         0.357035
 H        -2.776346        -3.275067        -0.071888
 H        -2.502282        -1.062508        -1.345364
 H         1.238772         1.349675        -0.793218
 H         1.551756         1.208224         0.916164
 H         1.831162        -1.049482        -1.461228
 H         2.460844        -1.456672         0.327084
 H        -0.164186        -1.457178         2.337489
 H        -0.533018         0.306587         1.858802
