19
Iteration:  3949
 O        -2.907249        -1.159617         1.426980
 C        -1.689553        -1.345091         0.818896
 C        -1.392343        -2.626070         0.167965
 C        -1.669260        -1.250805        -0.643003
 O        -0.668108        -0.301030        -0.995434
 C         0.220177        -0.267054         0.115517
 C         1.534609         0.322864        -0.007342
 C         1.395026        -1.319203        -0.096510
 C        -0.524560        -0.483295         1.387945
 H        -3.146787        -1.619120         2.213075
 H        -0.418706        -3.076280         0.183856
 H        -2.232220        -3.295384         0.047853
 H        -2.506055        -1.087893        -1.315450
 H         1.904063         0.885298        -0.952783
 H         2.006062         0.549464         0.874884
 H         1.299299        -1.609664        -1.158838
 H         1.920515        -1.877705         0.699054
 H         0.218501        -0.791635         2.172323
 H        -1.146291         0.338144         1.707368
