19
Iteration:  4106charge 0 multiplicity 1
 O        -3.054046        -0.892866         1.478123
 C        -1.817842        -1.320077         0.885893
 C        -1.728901        -2.575922         0.070130
 C        -1.702697        -1.183177        -0.622142
 O        -0.452194        -0.691240        -1.016632
 C         0.389536        -0.579390         0.133113
 C         1.372760         0.532270         0.084652
 C         1.760078        -0.863036        -0.230561
 C        -0.431677        -0.859317         1.411427
 H        -3.467811        -1.620807         1.997637
 H        -0.756140        -3.110710         0.189820
 H        -2.721953        -3.078963         0.054520
 H        -2.549235        -0.976014        -1.376631
 H         1.204115         1.154730        -0.907209
 H         1.951305         1.041873         0.925344
 H         1.582274        -1.325693        -1.219232
 H         2.479055        -1.416458         0.354988
 H        -0.071826        -1.744970         1.979769
 H        -0.457215         0.021931         2.127519
