19
Iteration:  3702charge 0 multiplicity 1
 O        -2.896924        -0.838176         1.734235
 C        -1.819235        -1.358606         0.887943
 C        -1.943992        -2.513529        -0.046886
 C        -1.746882        -1.117329        -0.692746
 O        -0.354860        -1.012741        -1.162851
 C         0.369723        -0.564308         0.043857
 C         1.186307         0.705412         0.066441
 C         1.869026        -0.715279        -0.043270
 C        -0.385597        -1.028278         1.306803
 H        -3.345483        -1.592799         2.097673
 H        -1.041306        -3.128408        -0.032528
 H        -2.943335        -2.948924         0.031038
 H        -2.436735        -0.463135        -1.326157
 H         1.346869         1.325091        -0.819958
 H         1.347942         1.429867         0.962500
 H         2.375500        -1.091165        -0.882271
 H         2.064871        -1.088128         0.985850
 H         0.106695        -1.932141         1.678627
 H        -0.604801        -0.389361         2.194200
