19
Iteration:  2766charge 0 multiplicity 1
 O        -3.024624        -0.966989         1.591613
 C        -1.867610        -1.386488         0.841433
 C        -1.813770        -2.567407         0.082500
 C        -1.697473        -1.262816        -0.649784
 O        -0.515799        -0.530324        -1.023782
 C         0.453677        -0.562065         0.148269
 C         1.430153         0.533195        -0.035042
 C         1.861570        -0.928012        -0.192179
 C        -0.508834        -0.843383         1.393864
 H        -2.977266        -1.468733         2.428079
 H        -0.963640        -3.283844         0.000280
 H        -2.676299        -3.094586        -0.319600
 H        -2.577087        -0.922883        -1.302710
 H         1.354703         1.228474        -0.900766
 H         1.730167         0.982227         0.914240
 H         1.993335        -1.212171        -1.240880
 H         2.514843        -1.323200         0.585902
 H        -0.148017        -1.528097         2.156156
 H        -0.711641         0.195858         1.827254
