19
Iteration:  2078charge 0 multiplicity 1
 O        -2.928204        -0.950518         1.540951
 C        -1.769004        -1.328554         0.847285
 C        -1.531106        -2.586139        -0.061303
 C        -1.731795        -1.258464        -0.646397
 O        -0.614857        -0.478589        -0.976866
 C         0.293317        -0.518809         0.140705
 C         1.379836         0.466689         0.046533
 C         1.688160        -1.117518        -0.212309
 C        -0.499949        -0.698812         1.475063
 H        -3.081308        -1.522727         2.341172
 H        -0.546604        -3.121163        -0.167544
 H        -2.395706        -3.333191        -0.131244
 H        -2.533513        -1.204040        -1.358227
 H         1.329826         0.963606        -0.952844
 H         1.700155         1.095087         1.001540
 H         1.879334        -1.368197        -1.246151
 H         2.234019        -1.544323         0.720358
 H        -0.011727        -1.489688         2.077348
 H        -0.656834         0.308511         1.916866
