19
Iteration:  2326
 O        -2.955801        -0.856569         1.692385
 C        -1.842441        -1.387422         0.892942
 C        -1.796431        -2.554291        -0.176148
 C        -1.816079        -1.185623        -0.679114
 O        -0.498340        -0.733168        -0.980354
 C         0.402159        -0.584743         0.104352
 C         1.309875         0.586628        -0.014686
 C         1.845900        -0.915976        -0.091653
 C        -0.410826        -0.876496         1.372394
 H        -3.128173        -1.594481         2.350576
 H        -0.766474        -3.015674        -0.282141
 H        -2.724893        -3.149484        -0.425788
 H        -2.455409        -0.973686        -1.399800
 H         1.224206         1.257585        -0.934377
 H         1.713217         1.000445         0.993027
 H         2.305808        -1.234563        -1.093472
 H         2.485924        -1.284742         0.811894
 H         0.104827        -1.326206         2.190657
 H        -0.616753         0.180581         1.804937
