19
Iteration:  2301charge 0 multiplicity 1
 O        -2.891982        -0.957128         1.532849
 C        -1.757192        -1.340257         0.875434
 C        -1.759321        -2.580461         0.043162
 C        -1.777939        -1.127949        -0.583169
 O        -0.550911        -0.596996        -1.102169
 C         0.333900        -0.533727         0.077398
 C         1.346780         0.496633        -0.037699
 C         1.805134        -0.936726        -0.010886
 C        -0.458790        -0.853238         1.394181
 H        -3.131975        -1.793833         2.000757
 H        -0.764903        -3.005682        -0.155157
 H        -2.632783        -3.188734        -0.286865
 H        -2.755483        -0.589823        -0.911772
 H         1.241244         1.012422        -1.077078
 H         1.504017         1.081524         0.816860
 H         2.122809        -1.423381        -1.002425
 H         2.268939        -1.558860         0.806573
 H         0.100441        -1.702727         1.996765
 H        -0.470143        -0.039238         2.119241
