19
Iteration:  3793charge 0 multiplicity 1
 O        -3.010402        -0.896262         1.550578
 C        -1.772279        -1.259176         0.893863
 C        -1.781467        -2.578801         0.018523
 C        -1.703706        -1.182059        -0.656563
 O        -0.442926        -0.790482        -1.092998
 C         0.349398        -0.531863         0.121743
 C         1.309540         0.600999         0.075214
 C         1.755115        -0.870722        -0.154361
 C        -0.410521        -0.925723         1.411824
 H        -3.250992        -1.497488         2.306663
 H        -0.811799        -3.052377         0.088978
 H        -2.698868        -3.165449        -0.271295
 H        -2.507870        -0.844821        -1.243328
 H         1.260522         1.380187        -0.692233
 H         1.400879         0.944865         1.084165
 H         1.980163        -1.125417        -1.263285
 H         2.459027        -1.373947         0.439960
 H         0.140347        -1.772482         1.830444
 H        -0.484586        -0.126079         2.173938
