19
Iteration:  3831charge 0 multiplicity 1
 O        -2.889664        -0.971109         1.678812
 C        -1.863000        -1.371517         0.806099
 C        -1.822437        -2.586092        -0.057609
 C        -1.788595        -1.239741        -0.705016
 O        -0.563286        -0.617415        -1.049657
 C         0.340863        -0.524793         0.074419
 C         1.432295         0.515686        -0.066717
 C         1.898438        -0.940457         0.064225
 C        -0.435532        -0.720977         1.392927
 H        -3.336165        -1.840570         1.847042
 H        -0.929925        -3.236881        -0.068280
 H        -2.652238        -3.235675        -0.177159
 H        -2.625724        -0.804968        -1.306773
 H         1.440617         1.129497        -1.033675
 H         1.370730         1.089916         0.854344
 H         2.157934        -1.215959        -0.919779
 H         2.467198        -1.389350         0.935575
 H         0.026057        -1.464185         2.067961
 H        -0.627737         0.212500         1.937298
