19
Iteration:  2369charge 0 multiplicity 1
 O        -2.969313        -0.967499         1.522861
 C        -1.783795        -1.286003         0.870662
 C        -1.949501        -2.558707         0.047799
 C        -1.782059        -1.195565        -0.665427
 O        -0.484659        -0.759146        -1.044342
 C         0.391777        -0.521429         0.057264
 C         1.364609         0.624449         0.090173
 C         1.793408        -0.840831        -0.131148
 C        -0.275318        -0.887144         1.373707
 H        -3.112231        -1.515406         2.337645
 H        -1.184372        -3.351794        -0.166558
 H        -2.932233        -3.022019        -0.160046
 H        -2.501814        -0.787801        -1.206242
 H         1.372109         1.231124        -0.801310
 H         1.482918         1.063267         1.153110
 H         2.130536        -1.391045        -1.023801
 H         2.228841        -1.440320         0.760039
 H         0.221736        -1.726971         1.886251
 H        -0.363835        -0.037157         2.143437
