19
Iteration:  3821charge 0 multiplicity 1
 O        -2.902482        -0.961837         1.653827
 C        -1.768300        -1.277979         0.819615
 C        -1.803977        -2.609627         0.026357
 C        -1.743389        -1.169097        -0.704708
 O        -0.498947        -0.610538        -1.051468
 C         0.343829        -0.645976         0.084835
 C         1.304944         0.466671         0.007734
 C         1.849183        -0.896517        -0.051025
 C        -0.487672        -0.805844         1.347235
 H        -3.391752        -1.775229         1.980566
 H        -0.801458        -3.033212        -0.000549
 H        -2.708538        -3.130032        -0.156592
 H        -2.530264        -0.828898        -1.365036
 H         1.221663         1.092721        -0.961111
 H         1.413330         1.145937         0.855259
 H         2.446619        -1.140171        -0.898927
 H         2.265128        -1.222138         0.924800
 H         0.019300        -1.453519         2.073363
 H        -0.657793         0.172387         1.851365
