19
Iteration:  3210charge 0 multiplicity 1
 O        -2.869645        -0.835643         1.606388
 C        -1.787042        -1.343221         0.794762
 C        -1.981559        -2.655365        -0.100300
 C        -1.732548        -1.200581        -0.654021
 O        -0.469342        -0.769593        -1.041079
 C         0.372391        -0.602515         0.166414
 C         1.274200         0.622794        -0.005502
 C         1.919391        -0.722035        -0.105919
 C        -0.415167        -0.956419         1.445471
 H        -3.037692        -1.280849         2.474281
 H        -1.266119        -3.514369         0.038761
 H        -2.919080        -3.219143        -0.270152
 H        -2.529513        -0.620784        -1.165464
 H         0.956058         1.022118        -0.927915
 H         1.449352         1.191887         0.965310
 H         2.199353        -1.070998        -1.087621
 H         2.477170        -1.335435         0.640911
 H         0.045892        -1.773180         2.087605
 H        -0.554698        -0.015336         2.006092
