19
Iteration:  2956
 O        -2.951367        -1.176451         1.596283
 C        -1.767093        -1.359367         0.862945
 C        -1.579376        -2.543577        -0.037503
 C        -1.681929        -1.148782        -0.643157
 O        -0.564247        -0.443248        -1.086558
 C         0.263023        -0.442432         0.126467
 C         1.528939         0.390828        -0.011010
 C         1.545117        -1.187092        -0.053206
 C        -0.508364        -0.513530         1.386228
 H        -2.741137        -1.683948         2.420036
 H        -0.639531        -3.050181         0.132583
 H        -2.367037        -3.249538        -0.178952
 H        -2.540622        -0.921311        -1.365587
 H         1.663394         0.884510        -0.935141
 H         1.926536         0.891320         0.897234
 H         1.489408        -1.586561        -1.059784
 H         2.109810        -1.725493         0.724199
 H        -0.013280        -0.977741         2.298305
 H        -1.058324         0.396238         1.640478
