19
Iteration:  4212
 O        -2.904231        -0.966560         1.579190
 C        -1.802710        -1.347726         0.870054
 C        -1.808273        -2.535454        -0.095490
 C        -1.724578        -1.171651        -0.609517
 O        -0.506750        -0.740687        -1.001768
 C         0.355894        -0.565519         0.030126
 C         1.340793         0.510295         0.011674
 C         1.835400        -0.890545        -0.019825
 C        -0.496653        -0.749540         1.350406
 H        -2.962299        -1.635727         2.298745
 H        -0.973661        -3.283150        -0.132979
 H        -2.853371        -2.975154        -0.059043
 H        -2.670587        -0.919710        -1.236110
 H         1.539740         1.206694        -0.913553
 H         1.640438         1.038592         0.914633
 H         2.055802        -1.295576        -1.020711
 H         2.263534        -1.405923         0.889582
 H         0.068813        -1.270280         2.204872
 H        -0.743144         0.265976         1.665535
