19
Iteration:  2587charge 0 multiplicity 1
 O        -2.996694        -1.215834         1.616193
 C        -1.829788        -1.320797         0.861484
 C        -1.482639        -2.521926         0.029650
 C        -1.738332        -1.211836        -0.666881
 O        -0.591538        -0.414407        -1.009317
 C         0.299902        -0.357877         0.123911
 C         1.654371         0.316238        -0.008399
 C         1.509009        -1.136795        -0.147532
 C        -0.567795        -0.537436         1.292199
 H        -2.783208        -1.559258         2.485384
 H        -0.384904        -2.676937         0.033787
 H        -2.170441        -3.345101        -0.060793
 H        -2.492175        -1.073127        -1.305933
 H         1.898861         1.044522        -0.815120
 H         2.026678         0.553535         0.972373
 H         1.472891        -1.701277        -1.114933
 H         1.957190        -1.732226         0.666940
 H        -0.073278        -1.075408         2.132293
 H        -0.998886         0.310461         1.780947
