19
Iteration:  2863
 O        -2.901262        -0.987202         1.655494
 C        -1.843073        -1.326322         0.810938
 C        -1.832038        -2.630114         0.003526
 C        -1.706782        -1.142571        -0.661258
 O        -0.502306        -0.670520        -1.145969
 C         0.371226        -0.505623         0.124361
 C         1.464104         0.550947         0.008747
 C         1.846485        -0.900621        -0.087055
 C        -0.624443        -0.832094         1.418136
 H        -2.788761        -1.519322         2.462805
 H        -0.999451        -3.287282        -0.093267
 H        -2.743079        -3.193917        -0.196150
 H        -2.626568        -0.824419        -1.140469
 H         1.252831         1.093928        -0.826202
 H         1.915519         1.216364         0.837977
 H         2.093932        -1.276113        -1.024942
 H         2.262332        -1.392400         0.787287
 H        -0.066156        -1.534846         1.945013
 H        -0.762352         0.089691         1.983778
