19
Iteration:  4772
 O        -2.819440        -0.752910         1.473298
 C        -1.715980        -1.346943         0.858648
 C        -1.998764        -2.572603         0.026125
 C        -1.730199        -1.274934        -0.711838
 O        -0.438768        -0.859541        -1.083838
 C         0.360254        -0.536508         0.139412
 C         1.169635         0.621832         0.149975
 C         1.756705        -0.745790        -0.080493
 C        -0.293186        -1.030390         1.379507
 H        -3.102098        -1.396485         2.122886
 H        -1.287907        -3.422043         0.173529
 H        -3.081415        -2.761011         0.147242
 H        -2.564851        -0.691124        -1.146634
 H         0.984562         1.264778        -0.781069
 H         1.490497         1.085082         1.032718
 H         1.998176        -1.080153        -1.183780
 H         2.561845        -1.117670         0.582485
 H         0.230609        -1.916129         1.955137
 H        -0.485018        -0.133220         2.023932
