19
Iteration:  4667charge 0 multiplicity 1
 O        -2.924072        -0.796768         1.626304
 C        -1.816054        -1.326929         0.870234
 C        -1.964259        -2.562023        -0.106258
 C        -1.786359        -1.197614        -0.625271
 O        -0.503950        -0.962689        -0.985445
 C         0.445135        -0.582013         0.049148
 C         1.313324         0.652571         0.021497
 C         1.922905        -0.709368        -0.033430
 C        -0.394695        -0.994873         1.289219
 H        -2.923279        -1.382462         2.389594
 H        -1.183299        -3.368213        -0.174826
 H        -2.990781        -2.949207        -0.290479
 H        -2.640468        -0.670623        -1.293951
 H         1.428483         1.225405        -1.004729
 H         1.268068         1.202711         0.975238
 H         2.430468        -0.909370        -1.046052
 H         2.348174        -1.016046         0.933355
 H         0.086372        -1.748079         1.882676
 H        -0.427824        -0.185782         2.094582
