19
Iteration:  1360charge 0 multiplicity 1
 O        -2.764367        -0.695838         1.527440
 C        -1.743617        -1.321483         0.842196
 C        -2.092683        -2.536756         0.031279
 C        -1.744976        -1.201458        -0.625910
 O        -0.325832        -1.024386        -1.006970
 C         0.399398        -0.656247         0.154705
 C         1.017757         0.789782         0.052390
 C         1.831026        -0.545855        -0.084357
 C        -0.330493        -1.285098         1.286664
 H        -2.974684        -1.278198         2.284992
 H        -1.386396        -3.305976        -0.052596
 H        -3.154401        -2.740990        -0.102341
 H        -2.449425        -0.536017        -1.268812
 H         0.771639         1.327131        -0.875787
 H         0.985448         1.420028         0.976682
 H         2.049351        -0.929843        -1.074593
 H         2.613564        -0.907892         0.580592
 H         0.206713        -2.306190         1.457281
 H        -0.057392        -0.727200         2.165133
