19
Iteration:   551charge 0 multiplicity 1
 O        -2.851394        -1.308018         1.867282
 C        -1.785202        -1.280792         0.805615
 C        -1.369483        -2.506709         0.027649
 C        -1.729028        -1.214972        -0.722718
 O        -0.649055        -0.374688        -1.058581
 C         0.230724        -0.447738         0.086495
 C         1.610350         0.323006        -0.074992
 C         1.491311        -1.197048        -0.052247
 C        -0.630845        -0.415429         1.282586
 H        -3.702986        -1.278675         1.354258
 H        -0.345662        -2.827203        -0.065317
 H        -2.037342        -3.328663        -0.095205
 H        -2.500870        -1.289815        -1.495674
 H         1.667166         0.793271        -1.034245
 H         2.158951         0.770129         0.744203
 H         1.653816        -1.805182        -0.848442
 H         1.788775        -1.609486         0.930009
 H        -0.197472        -0.759056         2.255836
 H        -1.104537         0.546269         1.399324
