19
Iteration:  3236charge 0 multiplicity 1
 O        -2.902615        -0.765578         1.462624
 C        -1.760512        -1.401662         0.918818
 C        -1.960033        -2.611509         0.014773
 C        -1.685602        -1.264185        -0.600996
 O        -0.444906        -0.787134        -1.026842
 C         0.371315        -0.550471         0.106874
 C         1.231902         0.663256         0.111459
 C         1.860074        -0.716233        -0.185118
 C        -0.391206        -1.073897         1.339241
 H        -3.281104        -1.109874         2.320036
 H        -1.218027        -3.395606        -0.023741
 H        -2.976405        -3.004686        -0.022988
 H        -2.474237        -0.602302        -0.945863
 H         1.110338         1.386904        -0.753636
 H         1.442456         1.017597         1.062051
 H         2.106446        -1.148042        -1.192642
 H         2.405272        -1.248151         0.571627
 H         0.130215        -1.918381         1.734465
 H        -0.482668        -0.267119         2.112566
