19
Iteration:   444
 O        -2.964142        -1.023352         1.574421
 C        -1.753922        -1.376267         0.927187
 C        -1.705356        -2.641466         0.127067
 C        -1.704620        -1.283746        -0.605486
 O        -0.535652        -0.598584        -1.025373
 C         0.322556        -0.391145         0.090862
 C         1.426305         0.539780        -0.179053
 C         1.716008        -0.933680        -0.150468
 C        -0.462418        -0.709990         1.413714
 H        -3.358838        -1.872469         1.926652
 H        -0.854169        -3.214269         0.110511
 H        -2.665959        -3.074404         0.017563
 H        -2.517612        -1.265657        -1.342259
 H         1.673574         0.975639        -1.156006
 H         1.615999         1.241719         0.703611
 H         1.869862        -1.397872        -1.065990
 H         2.225882        -1.357188         0.717146
 H        -0.084097        -1.361257         2.264219
 H        -0.782179         0.249944         1.856431
