19
Iteration:  3426charge 0 multiplicity 1
 O        -2.767317        -0.604760         1.588580
 C        -1.775062        -1.311730         0.814807
 C        -2.089987        -2.597492         0.010105
 C        -1.695665        -1.273737        -0.682691
 O        -0.394739        -0.989223        -1.113865
 C         0.396529        -0.650623         0.107003
 C         0.991348         0.698307         0.169388
 C         1.844591        -0.524940        -0.026075
 C        -0.206659        -1.266158         1.286827
 H        -3.553738        -1.044434         1.922434
 H        -1.574983        -3.543980        -0.034102
 H        -3.177106        -2.674778         0.225746
 H        -2.425122        -0.792148        -1.248602
 H         0.796198         1.315367        -0.728440
 H         1.120413         1.168779         1.117314
 H         2.491430        -0.519069        -0.947178
 H         2.461238        -0.887896         0.761086
 H         0.147811        -2.274486         1.303797
 H        -0.074553        -0.719459         2.177902
