19
Iteration:  3224charge 0 multiplicity 1
 O        -2.888818        -0.768898         1.501030
 C        -1.829136        -1.439545         0.881223
 C        -1.982296        -2.661695        -0.035030
 C        -1.715565        -1.198651        -0.569372
 O        -0.451597        -0.759482        -0.975360
 C         0.427823        -0.609368         0.109762
 C         1.209109         0.663395         0.064965
 C         1.837348        -0.791412        -0.142320
 C        -0.342535        -1.016829         1.349213
 H        -2.983278        -1.247669         2.327969
 H        -1.199119        -3.385008        -0.152737
 H        -3.026924        -2.778733        -0.345692
 H        -2.478794        -1.034643        -1.304249
 H         1.263352         1.332950        -0.799531
 H         1.478277         1.231034         0.925755
 H         2.164955        -0.918362        -1.228409
 H         2.547497        -0.894762         0.580481
 H         0.182738        -1.691446         2.013962
 H        -0.570065        -0.104765         1.972924
