19
Iteration:  3329charge 0 multiplicity 1
 O        -2.876736        -0.814448         1.583847
 C        -1.783615        -1.376605         0.874925
 C        -2.127212        -2.546706        -0.117302
 C        -1.705905        -1.068332        -0.572898
 O        -0.388285        -1.093976        -1.050572
 C         0.378154        -0.519868         0.085908
 C         1.130585         0.753155        -0.061266
 C         1.855584        -0.659507         0.051697
 C        -0.278855        -1.088610         1.393784
 H        -2.892940        -1.408260         2.346407
 H        -1.323091        -3.270939        -0.419276
 H        -3.109469        -2.929077        -0.481489
 H        -2.358771        -0.430141        -1.113261
 H         1.231520         1.242000        -1.036239
 H         1.360522         1.355123         0.827750
 H         2.315697        -1.117956        -0.919020
 H         2.467069        -0.893698         0.901835
 H         0.212274        -2.079250         1.555667
 H        -0.100206        -0.452262         2.250153
