19
Iteration:  4648
 O        -2.967196        -0.872316         1.568100
 C        -1.816965        -1.259286         0.861723
 C        -1.999745        -2.553400         0.109706
 C        -1.705122        -1.171323        -0.664248
 O        -0.360791        -0.813086        -1.160549
 C         0.372318        -0.649247         0.088234
 C         1.205183         0.641085         0.070432
 C         1.919074        -0.753652        -0.084921
 C        -0.410519        -1.030901         1.352529
 H        -2.767800        -1.187192         2.447227
 H        -1.159436        -3.265198         0.197825
 H        -3.020834        -2.919644         0.150235
 H        -2.594432        -0.853768        -1.362325
 H         1.088133         1.182269        -0.970090
 H         1.419916         1.142737         1.056022
 H         2.244944        -0.994782        -1.084005
 H         2.535753        -1.207446         0.652987
 H         0.162427        -1.968095         1.778046
 H        -0.244427        -0.233113         2.105603
