19
Iteration:  2135
 O        -2.987835        -1.322865         1.629537
 C        -1.757708        -1.262203         0.866630
 C        -1.512065        -2.498798        -0.023545
 C        -1.788705        -1.101110        -0.686340
 O        -0.616337        -0.514645        -1.054332
 C         0.274216        -0.413639         0.104586
 C         1.633383         0.353899        -0.020340
 C         1.579068        -1.164884        -0.039717
 C        -0.562280        -0.420106         1.351344
 H        -2.855114        -1.990530         2.309850
 H        -0.479575        -2.821293        -0.077297
 H        -2.281128        -3.246189         0.071651
 H        -2.657182        -0.779020        -1.188974
 H         2.017274         0.721926        -0.992085
 H         1.907334         0.906861         0.794038
 H         1.544372        -1.756942        -0.945187
 H         2.013664        -1.814345         0.626657
 H         0.016281        -0.890899         2.226052
 H        -0.772601         0.564738         1.640448
