19
Iteration:  4143charge 0 multiplicity 1
 O        -2.939099        -0.862918         1.523096
 C        -1.774362        -1.414376         0.914706
 C        -1.847870        -2.618173        -0.040796
 C        -1.733969        -1.212915        -0.597614
 O        -0.509692        -0.661968        -1.096700
 C         0.384364        -0.574523         0.175192
 C         1.363878         0.553147        -0.019836
 C         1.836505        -0.819621        -0.077277
 C        -0.453032        -0.864249         1.383658
 H        -3.329589        -1.484552         2.134814
 H        -1.077345        -3.375744        -0.048948
 H        -2.850547        -3.036688        -0.012172
 H        -2.602155        -0.868086        -1.107877
 H         1.446241         1.062786        -0.916411
 H         1.709938         1.177807         0.784613
 H         2.154647        -1.327022        -1.050789
 H         2.371413        -1.410740         0.755349
 H         0.029901        -1.550211         2.128265
 H        -0.788436         0.033540         1.950974
