19
Iteration:  2351
 O        -2.902830        -0.994268         1.575191
 C        -1.769937        -1.331759         0.819729
 C        -1.955510        -2.554787         0.022127
 C        -1.688211        -1.148774        -0.637639
 O        -0.432813        -0.753452        -1.091608
 C         0.361503        -0.521149         0.134329
 C         1.386431         0.601778         0.050881
 C         1.780759        -0.867337        -0.116202
 C        -0.509144        -0.899367         1.349802
 H        -2.726970        -1.597213         2.340956
 H        -1.251374        -3.329960         0.177706
 H        -2.994739        -2.702363         0.299760
 H        -2.570006        -0.763675        -1.311782
 H         1.454875         1.162174        -0.822499
 H         1.715602         1.108496         1.000261
 H         1.976879        -0.932493        -1.148260
 H         2.460172        -1.291312         0.542630
 H        -0.045792        -1.598090         2.001327
 H        -0.729380        -0.029907         2.000418
