19
Iteration:  4819
 O        -2.961679        -0.684670         1.601551
 C        -1.888028        -1.313950         0.923057
 C        -1.885701        -2.585921        -0.029664
 C        -1.765546        -1.240591        -0.650817
 O        -0.445442        -0.906558        -1.103783
 C         0.408247        -0.588649         0.076327
 C         1.242711         0.673777         0.022312
 C         1.932902        -0.665007        -0.051266
 C        -0.386710        -1.146332         1.345987
 H        -3.011678        -0.848668         2.579418
 H        -0.945034        -3.153372         0.024360
 H        -2.850598        -3.111738        -0.133032
 H        -2.554643        -0.986780        -1.452578
 H         1.166010         1.150587        -0.940125
 H         1.469407         1.164063         1.025164
 H         2.348583        -1.045924        -0.950076
 H         2.578990        -1.063411         0.794158
 H        -0.003988        -2.198187         1.369376
 H        -0.392613        -0.633798         2.384877
