19
Iteration:  3044charge 0 multiplicity 1
 O        -2.997499        -1.202777         1.599891
 C        -1.739870        -1.381011         0.848400
 C        -1.436178        -2.576980         0.052202
 C        -1.729632        -1.156540        -0.663728
 O        -0.545611        -0.336361        -0.970599
 C         0.297827        -0.390182         0.127350
 C         1.593504         0.299230        -0.075043
 C         1.514322        -1.220145        -0.091875
 C        -0.622794        -0.467259         1.334416
 H        -3.256374        -1.865118         2.297924
 H        -0.480474        -2.947512        -0.100265
 H        -2.239532        -3.248339         0.083803
 H        -2.569309        -0.892795        -1.366663
 H         1.580901         0.788012        -1.005634
 H         2.158912         0.759618         0.726853
 H         1.447424        -1.569782        -1.110083
 H         2.032437        -1.947059         0.511555
 H        -0.167337        -0.786604         2.343039
 H        -1.156875         0.467865         1.475088
