19
Iteration:  4400charge 0 multiplicity 1
 O        -3.003762        -1.224230         1.528107
 C        -1.757785        -1.406298         0.904834
 C        -1.570709        -2.602333         0.048419
 C        -1.666361        -1.218503        -0.663551
 O        -0.609698        -0.370744        -1.111046
 C         0.277507        -0.347618         0.160777
 C         1.708660         0.293590        -0.084803
 C         1.523717        -1.167946        -0.032355
 C        -0.620780        -0.393673         1.423353
 H        -3.012625        -1.813594         2.275384
 H        -0.575483        -3.003779         0.023204
 H        -2.378301        -3.305188        -0.103879
 H        -2.655648        -0.923355        -1.120644
 H         2.038818         0.718176        -1.003785
 H         2.166030         1.003606         0.723232
 H         1.639120        -1.697355        -0.934210
 H         2.010851        -1.614715         0.810204
 H         0.056718        -0.906118         2.106301
 H        -1.026427         0.589851         1.768106
