19
Iteration:  1314
 O        -2.639160        -0.699145         1.695058
 C        -1.752849        -1.358062         0.791704
 C        -2.190226        -2.468984        -0.032995
 C        -1.661115        -1.172522        -0.617024
 O        -0.327038        -1.162912        -1.090630
 C         0.392624        -0.736548         0.081119
 C         0.907480         0.705512         0.067263
 C         1.848439        -0.426033        -0.000926
 C        -0.323988        -1.214746         1.266134
 H        -3.404291        -1.261825         1.744308
 H        -1.534683        -3.319970        -0.094449
 H        -3.232679        -2.607765        -0.016717
 H        -2.332571        -0.547190        -1.213633
 H         0.843451         1.281718        -0.925156
 H         0.882259         1.324856         1.016756
 H         2.349664        -0.414552        -1.047465
 H         2.494609        -0.709615         0.835208
 H         0.222753        -2.125368         1.669490
 H        -0.269614        -0.375657         2.001292
