19
Iteration:  3293charge 0 multiplicity 1
 O        -2.818262        -0.773317         1.628241
 C        -1.795117        -1.314387         0.869447
 C        -2.070651        -2.634518         0.009265
 C        -1.693884        -1.146149        -0.689052
 O        -0.422330        -0.903244        -1.181951
 C         0.422452        -0.671999         0.148488
 C         1.142216         0.678836         0.093085
 C         1.889441        -0.664529        -0.082107
 C        -0.382936        -1.088087         1.381392
 H        -3.140280        -1.387674         2.319226
 H        -1.235682        -3.441739        -0.025853
 H        -3.052894        -2.909016        -0.462563
 H        -2.436194        -0.722039        -1.471911
 H         1.185897         1.288166        -0.827342
 H         1.302139         1.330400         1.033181
 H         2.192204        -0.895293        -1.081223
 H         2.576674        -0.882652         0.868064
 H         0.075837        -1.839336         2.014720
 H        -0.562685        -0.221435         2.025296
