19
Iteration:  4066charge 0 multiplicity 1
 O        -2.960637        -0.942122         1.570387
 C        -1.859529        -1.377398         0.902087
 C        -1.725252        -2.601937         0.006622
 C        -1.808081        -1.195435        -0.671111
 O        -0.567505        -0.597753        -1.069400
 C         0.339439        -0.567454         0.093604
 C         1.502591         0.548355         0.052979
 C         1.812903        -0.976120        -0.004829
 C        -0.467428        -0.784693         1.292540
 H        -3.000566        -1.418970         2.415178
 H        -0.896542        -3.244464        -0.067198
 H        -2.553301        -3.270432        -0.156197
 H        -2.523861        -0.978908        -1.392555
 H         1.518407         1.159177        -0.869373
 H         1.659792         1.101669         0.852071
 H         2.080275        -1.250312        -1.068548
 H         2.181916        -1.466258         0.873195
 H         0.225947        -1.353336         1.911200
 H        -0.596367         0.228163         1.724194
