19
Iteration:  3974
 O        -3.033860        -1.197054         1.537562
 C        -1.792431        -1.283710         0.860754
 C        -1.361745        -2.514970         0.043421
 C        -1.643079        -1.241828        -0.593805
 O        -0.655636        -0.330199        -0.997780
 C         0.308422        -0.466939         0.103738
 C         1.588220         0.308092        -0.109506
 C         1.525858        -1.225349        -0.102689
 C        -0.595430        -0.463167         1.413435
 H        -3.395070        -1.952674         2.000860
 H        -0.364711        -2.895258         0.272749
 H        -2.046003        -3.373179        -0.055209
 H        -2.503740        -1.029109        -1.214367
 H         1.734986         0.765230        -1.088252
 H         2.149540         0.694418         0.840860
 H         1.639185        -1.658413        -1.103499
 H         1.744395        -1.785247         0.771929
 H        -0.075495        -0.798737         2.319297
 H        -1.028510         0.542845         1.535575
