19
Iteration:  1746charge 0 multiplicity 1
 O        -2.909755        -1.176170         1.513650
 C        -1.761544        -1.334519         0.849610
 C        -1.387963        -2.488916         0.066604
 C        -1.716669        -1.187677        -0.609368
 O        -0.634453        -0.465694        -1.077633
 C         0.246405        -0.383130         0.153923
 C         1.578118         0.340625         0.017293
 C         1.446665        -1.212871        -0.178651
 C        -0.595635        -0.480691         1.415850
 H        -2.899511        -1.657605         2.340949
 H        -0.340221        -2.993504         0.020829
 H        -2.102550        -3.348667         0.239033
 H        -2.660956        -0.937488        -1.225344
 H         1.795112         0.951904        -0.905402
 H         2.096720         0.515454         0.937443
 H         1.422123        -1.720728        -1.219144
 H         2.074467        -1.605519         0.590684
 H        -0.113586        -1.029808         2.214586
 H        -1.096444         0.478579         1.742822
