19
Iteration:   228
 O        -2.891892        -0.963441         1.478840
 C        -1.753089        -1.323073         0.886548
 C        -1.792127        -2.644586         0.037158
 C        -1.815572        -1.144703        -0.586664
 O        -0.574739        -0.743071        -1.047594
 C         0.381198        -0.529436         0.142514
 C         1.276413         0.645930        -0.184900
 C         1.788175        -0.846120        -0.011880
 C        -0.329390        -0.916063         1.443916
 H        -2.900856        -1.184182         2.406397
 H        -0.893879        -3.174493        -0.123330
 H        -2.650067        -3.339705         0.073794
 H        -2.689779        -0.643187        -1.113995
 H         1.089323         0.991111        -1.242321
 H         1.417297         1.485852         0.550048
 H         2.206093        -1.375035        -0.922097
 H         2.274224        -1.104412         0.910308
 H         0.241861        -1.689468         1.844968
 H        -0.509782        -0.158119         2.292209
