19
Iteration:   719charge 0 multiplicity 1
 O        -2.968110        -0.968386         1.687535
 C        -1.793725        -1.358407         0.893685
 C        -1.764870        -2.542608         0.039762
 C        -1.805578        -1.192682        -0.612327
 O        -0.420321        -0.678718        -1.059670
 C         0.378809        -0.603055         0.106336
 C         1.335075         0.570335        -0.094451
 C         1.843502        -0.777999        -0.173565
 C        -0.489251        -0.904597         1.396647
 H        -3.510318        -1.793412         1.650408
 H        -0.898329        -3.224038        -0.052196
 H        -2.623767        -3.204754        -0.256179
 H        -2.529602        -0.745676        -1.270726
 H         1.195022         1.134631        -0.988933
 H         1.657485         1.094146         0.888157
 H         1.982924        -1.217347        -1.131437
 H         2.536577        -1.137388         0.712261
 H         0.015990        -1.468146         2.223739
 H        -0.867407         0.034591         1.812836
