19
Iteration:  4838
 O        -2.881153        -0.796667         1.564184
 C        -1.790239        -1.234799         0.788951
 C        -1.992611        -2.526585         0.089919
 C        -1.676286        -1.174734        -0.649089
 O        -0.369205        -0.934813        -1.066102
 C         0.337432        -0.633477         0.104651
 C         1.184415         0.707106         0.042840
 C         1.814526        -0.726489        -0.078974
 C        -0.371767        -1.107980         1.342824
 H        -2.977986        -1.573099         2.182115
 H        -1.144459        -3.254796         0.171541
 H        -3.037853        -2.915033        -0.042728
 H        -2.539999        -0.606815        -1.167779
 H         1.143298         1.172474        -0.967201
 H         1.264197         1.156631         0.993037
 H         2.258778        -1.067010        -1.070604
 H         2.461743        -1.109088         0.825129
 H         0.035510        -2.112029         1.746088
 H        -0.331089        -0.214539         1.965148
