19
Iteration:  2338charge 0 multiplicity 1
 O        -2.906023        -0.928326         1.675665
 C        -1.852336        -1.324787         0.827166
 C        -1.906812        -2.615385        -0.074417
 C        -1.731258        -1.191493        -0.666421
 O        -0.436293        -0.743552        -1.054828
 C         0.370295        -0.552778         0.143013
 C         1.364353         0.556952         0.031854
 C         1.870123        -0.847334        -0.144949
 C        -0.487179        -0.818751         1.377749
 H        -2.961244        -1.511409         2.437071
 H        -1.032557        -3.298694        -0.155170
 H        -2.835049        -3.107502        -0.429034
 H        -2.501281        -0.704108        -1.161589
 H         1.248182         1.234960        -0.793456
 H         1.579461         1.153908         1.007626
 H         1.957967        -1.333226        -1.111390
 H         2.445359        -1.312273         0.699152
 H        -0.049669        -1.566939         1.966354
 H        -0.709729         0.127197         1.979809
