19
Iteration:  1317charge 0 multiplicity 1
 O        -2.651669        -0.692169         1.697525
 C        -1.764676        -1.380213         0.814638
 C        -2.200834        -2.470681        -0.024342
 C        -1.673444        -1.193007        -0.611915
 O        -0.307408        -1.152007        -1.102043
 C         0.412161        -0.735875         0.071449
 C         0.935266         0.728796         0.062129
 C         1.869337        -0.420001         0.005516
 C        -0.317209        -1.206870         1.251410
 H        -3.462271        -1.254692         1.805014
 H        -1.571314        -3.302652        -0.125205
 H        -3.285757        -2.688240        -0.021999
 H        -2.389375        -0.495502        -1.224303
 H         0.825160         1.284482        -0.886813
 H         0.897751         1.263872         1.022142
 H         2.188561        -0.495440        -1.040185
 H         2.450705        -0.620916         0.855744
 H         0.156796        -2.277377         1.648689
 H        -0.383854        -0.375647         1.916356
