19
Iteration:  2015charge 0 multiplicity 1
 O        -2.890836        -0.976391         1.606055
 C        -1.791033        -1.341186         0.889644
 C        -1.875117        -2.602289        -0.014484
 C        -1.743461        -1.239956        -0.658738
 O        -0.552236        -0.588425        -1.036306
 C         0.368791        -0.565626         0.085049
 C         1.349893         0.534968         0.008162
 C         1.825360        -0.913610        -0.055255
 C        -0.424875        -0.809085         1.318441
 H        -3.172198        -1.685335         2.240116
 H        -0.948295        -3.184034        -0.200190
 H        -2.905279        -3.049977        -0.145044
 H        -2.466890        -0.734198        -1.216432
 H         1.327627         1.063616        -0.923543
 H         1.550494         1.050340         0.956546
 H         2.197920        -1.305204        -0.938510
 H         2.632734        -1.083722         0.693971
 H         0.145753        -1.494377         2.037426
 H        -0.602628         0.111851         1.806720
