19
Iteration:  4013charge 0 multiplicity 1
 O        -2.999307        -1.257784         1.589666
 C        -1.808126        -1.219664         0.904615
 C        -1.620726        -2.490004         0.013526
 C        -1.712103        -1.135926        -0.691320
 O        -0.549105        -0.517587        -1.086853
 C         0.334625        -0.488772         0.114502
 C         1.536435         0.429553        -0.098446
 C         1.682009        -1.161767        -0.015977
 C        -0.598880        -0.549585         1.411238
 H        -2.740202        -1.997147         2.173357
 H        -0.724528        -3.036999         0.114871
 H        -2.543624        -3.061376        -0.000494
 H        -2.561474        -0.809246        -1.167871
 H         1.766951         0.828096        -1.114339
 H         1.980230         1.028255         0.617879
 H         1.946117        -1.813631        -0.905239
 H         2.037200        -1.528385         0.941498
 H        -0.104752        -0.908624         2.341071
 H        -0.860012         0.509713         1.594458
