19
Iteration:  2180
 O        -2.977441        -1.244814         1.633449
 C        -1.817720        -1.345162         0.823026
 C        -1.462372        -2.590043        -0.055717
 C        -1.760220        -1.179472        -0.629842
 O        -0.661547        -0.329921        -0.950220
 C         0.320344        -0.311946         0.114718
 C         1.690962         0.310912        -0.199408
 C         1.535653        -1.217017         0.033930
 C        -0.552211        -0.443961         1.372558
 H        -3.221158        -2.085676         2.006078
 H        -0.479904        -2.966331         0.151900
 H        -2.247383        -3.276034        -0.197585
 H        -2.618308        -1.164864        -1.436097
 H         1.845126         0.605863        -1.159191
 H         2.172109         0.842977         0.621812
 H         1.688580        -1.731677        -0.878125
 H         1.903061        -1.850313         0.780612
 H        -0.074410        -0.887851         2.296495
 H        -1.016630         0.452603         1.676948
