19
Iteration:  4309
 O        -2.984142        -1.132670         1.535822
 C        -1.712162        -1.295416         0.928996
 C        -1.567409        -2.631097        -0.047556
 C        -1.721797        -1.279008        -0.644629
 O        -0.621354        -0.447087        -1.073854
 C         0.346996        -0.392302         0.098134
 C         1.534671         0.390707         0.100976
 C         1.615064        -1.189629        -0.088210
 C        -0.565348        -0.464179         1.352871
 H        -2.982758        -1.425423         2.479875
 H        -0.648886        -3.222070        -0.186357
 H        -2.510707        -3.239260        -0.049653
 H        -2.569512        -1.111575        -1.319299
 H         1.736216         0.971143        -0.874647
 H         1.958270         0.882857         0.915068
 H         1.763425        -1.648172        -1.095818
 H         1.883998        -1.834730         0.748303
 H         0.030992        -0.865279         2.240222
 H        -0.950590         0.514679         1.641763
