19
Iteration:   222
 O        -2.953674        -0.949096         1.531285
 C        -1.783485        -1.374280         0.857165
 C        -1.790205        -2.657669         0.033096
 C        -1.764696        -1.146022        -0.598130
 O        -0.505373        -0.732805        -1.023150
 C         0.389305        -0.472165         0.153640
 C         1.280740         0.644851        -0.200994
 C         1.785623        -0.854823        -0.056174
 C        -0.380920        -0.906174         1.398297
 H        -2.918583        -1.203628         2.467310
 H        -0.685719        -3.047384        -0.007563
 H        -2.613690        -3.405528         0.200533
 H        -2.640469        -0.613225        -0.893604
 H         0.973939         1.014090        -1.151828
 H         1.502374         1.305108         0.626929
 H         1.982688        -1.490406        -0.954520
 H         2.413058        -1.109042         0.814912
 H         0.039237        -1.858374         1.941052
 H        -0.359452        -0.075804         2.078058
