19
Iteration:  3171charge 0 multiplicity 1
 O        -2.991388        -1.014101         1.652549
 C        -1.808544        -1.242576         0.858328
 C        -1.886666        -2.516200        -0.061843
 C        -1.741546        -1.150020        -0.603394
 O        -0.457137        -0.839285        -1.098218
 C         0.361898        -0.528250         0.040743
 C         1.334066         0.594486         0.002453
 C         1.797756        -0.834592        -0.035092
 C        -0.302635        -0.836981         1.381504
 H        -3.026121        -1.913581         1.940896
 H        -0.968860        -3.102240         0.021501
 H        -2.842459        -3.073494        -0.043590
 H        -2.568821        -0.593536        -1.087625
 H         1.486890         0.979293        -1.018302
 H         1.242558         1.339140         0.807385
 H         2.184186        -1.346155        -0.976019
 H         1.955174        -1.360635         0.853654
 H         0.161074        -1.689953         1.803311
 H        -0.311316        -0.005633         2.136851
