19
Iteration:  3934
 O        -3.009375        -1.164674         1.469129
 C        -1.718201        -1.330984         0.907930
 C        -1.407473        -2.612413         0.047819
 C        -1.631468        -1.317207        -0.622987
 O        -0.665552        -0.320673        -1.013933
 C         0.269306        -0.337856         0.106153
 C         1.650241         0.287600        -0.020263
 C         1.388877        -1.142943        -0.139893
 C        -0.565123        -0.475145         1.387602
 H        -2.709531        -1.422385         2.374991
 H        -0.446956        -3.168010         0.261569
 H        -2.231465        -3.346991        -0.039153
 H        -2.640511        -1.212685        -1.255559
 H         1.885754         0.789218        -0.897614
 H         1.943705         0.773084         0.959956
 H         1.565909        -1.707413        -1.026035
 H         1.578604        -1.860845         0.712437
 H        -0.023801        -1.068402         2.154364
 H        -0.778169         0.558602         1.769777
