19
Iteration:  1215
 O        -2.705314        -0.653106         1.518374
 C        -1.706648        -1.368435         0.897502
 C        -2.057363        -2.519692        -0.019095
 C        -1.735966        -1.179841        -0.602099
 O        -0.385032        -1.111325        -1.049555
 C         0.352438        -0.640699         0.026626
 C         0.943393         0.737059         0.137129
 C         1.827393        -0.495606        -0.092507
 C        -0.336806        -1.291702         1.285648
 H        -2.721449        -0.793199         2.481048
 H        -1.207557        -3.184036        -0.174886
 H        -3.042904        -2.874432         0.130259
 H        -2.080948        -0.542272        -1.311644
 H         1.030801         1.432661        -0.702466
 H         0.830331         1.259358         1.135475
 H         2.234054        -0.591059        -1.078319
 H         2.554529        -0.906897         0.752766
 H        -0.146901        -2.334741         1.684183
 H        -0.247782        -0.727352         2.277161
