19
Iteration:  2217
 O        -2.990505        -1.190932         1.513812
 C        -1.756694        -1.277485         0.887805
 C        -1.496441        -2.542504         0.037032
 C        -1.735372        -1.167140        -0.601618
 O        -0.623597        -0.397984        -1.044101
 C         0.270125        -0.404871         0.067273
 C         1.483226         0.369423         0.011835
 C         1.555004        -1.264233        -0.125747
 C        -0.441472        -0.561377         1.427272
 H        -2.895735        -1.719205         2.322425
 H        -0.538726        -3.093152         0.126704
 H        -2.370677        -3.246601        -0.102572
 H        -2.507990        -1.130161        -1.292329
 H         1.827403         0.966343        -0.949638
 H         1.738503         0.991488         0.874056
 H         1.698413        -1.426489        -1.232695
 H         2.032050        -1.776372         0.757455
 H         0.113826        -1.070210         2.134353
 H        -0.634677         0.520149         1.699815
