19
Iteration:  3582charge 0 multiplicity 1
 O        -2.747147        -0.601678         1.614333
 C        -1.749267        -1.394524         0.861253
 C        -2.168923        -2.609663        -0.004738
 C        -1.694189        -1.331324        -0.676783
 O        -0.360024        -0.943874        -1.084071
 C         0.439373        -0.629876         0.014706
 C         1.016103         0.701698         0.216835
 C         1.912616        -0.583635        -0.024156
 C        -0.298998        -1.174259         1.250686
 H        -3.317087        -1.290632         2.094272
 H        -1.495469        -3.385243        -0.352813
 H        -3.239181        -2.766486        -0.125298
 H        -2.646147        -0.914794        -1.247615
 H         0.825960         1.342137        -0.721798
 H         0.775609         1.356810         1.076907
 H         2.318658        -0.555403        -1.087110
 H         2.471660        -0.911414         0.772070
 H         0.218699        -2.047707         1.668804
 H        -0.472452        -0.433618         2.086068
