19
Iteration:  1568
 O        -2.817705        -0.770790         1.533519
 C        -1.752968        -1.372132         0.859851
 C        -1.835621        -2.617728         0.012182
 C        -1.744005        -1.231276        -0.667339
 O        -0.485053        -0.702271        -1.098613
 C         0.348266        -0.602741         0.113900
 C         1.158393         0.582947         0.074560
 C         1.770000        -0.838138        -0.110821
 C        -0.349032        -0.967527         1.419035
 H        -3.146698        -1.415421         2.182830
 H        -0.916980        -3.287783        -0.018456
 H        -2.849173        -3.180144        -0.038655
 H        -2.731373        -0.794721        -1.015066
 H         0.975674         1.265102        -0.801130
 H         1.394227         1.279961         0.863080
 H         2.094181        -1.225393        -1.141227
 H         2.374883        -1.013320         0.784432
 H         0.143981        -1.882503         1.915816
 H        -0.442055        -0.204727         2.188059
