19
Iteration:  1417
 O        -2.821025        -0.761587         1.603657
 C        -1.749506        -1.326816         0.844720
 C        -2.084766        -2.581001         0.012443
 C        -1.780067        -1.226592        -0.666962
 O        -0.349354        -0.984437        -1.089598
 C         0.342652        -0.582502         0.093372
 C         1.185358         0.703234         0.124538
 C         1.903990        -0.586281        -0.165310
 C        -0.401066        -1.130051         1.381641
 H        -3.102302        -1.466877         2.234353
 H        -1.307174        -3.453589         0.101643
 H        -3.152124        -2.878189        -0.074068
 H        -2.448999        -0.605259        -1.280627
 H         1.078051         1.381062        -0.688663
 H         1.344156         1.191891         1.033982
 H         2.219151        -0.854867        -1.171263
 H         2.436591        -0.855608         0.749341
 H         0.272514        -2.065453         1.600170
 H        -0.418242        -0.291717         2.075034
