19
Iteration:   905
 O        -2.854558        -0.840743         1.716980
 C        -1.805190        -1.371591         0.907275
 C        -1.876385        -2.526611        -0.032971
 C        -1.725774        -1.145082        -0.702115
 O        -0.395668        -0.895924        -1.108037
 C         0.368841        -0.565689         0.099870
 C         1.138567         0.740180        -0.031003
 C         1.768420        -0.748640        -0.036026
 C        -0.346903        -1.069164         1.319296
 H        -3.241671        -1.559798         2.267017
 H        -1.077354        -3.244684        -0.047835
 H        -2.881714        -3.065910        -0.159970
 H        -2.481049        -0.657756        -1.317058
 H         1.149309         1.190892        -1.057254
 H         1.357225         1.315051         0.843592
 H         2.103663        -1.070206        -1.017470
 H         2.210984        -1.042784         0.868959
 H         0.088694        -2.061250         1.679226
 H        -0.289984        -0.367971         2.207561
