19
Iteration:   919charge 0 multiplicity 1
 O        -2.826702        -0.836297         1.737191
 C        -1.758555        -1.310039         0.783454
 C        -1.901023        -2.578543        -0.092451
 C        -1.757162        -1.103081        -0.621999
 O        -0.430873        -0.925188        -1.116126
 C         0.258392        -0.539677         0.096365
 C         1.207714         0.682678        -0.099930
 C         1.867599        -0.671063         0.018159
 C        -0.407430        -1.144616         1.370482
 H        -2.872659        -1.581174         2.410083
 H        -0.909136        -2.997832        -0.360317
 H        -2.901332        -3.110013         0.034990
 H        -2.634273        -0.678596        -1.240776
 H         0.980588         1.168988        -0.972869
 H         1.288984         1.260918         0.762009
 H         2.274065        -1.342288        -0.723408
 H         2.381125        -0.811696         1.096739
 H         0.147451        -1.996492         1.741827
 H        -0.556560        -0.347502         2.163098
