19
Iteration:   176
 O        -2.959936        -1.023860         1.606094
 C        -1.767834        -1.285763         0.863680
 C        -1.777985        -2.672657         0.196928
 C        -1.756961        -1.306606        -0.634940
 O        -0.504382        -0.638681        -1.046056
 C         0.363522        -0.536391         0.077091
 C         1.380994         0.545170         0.082185
 C         1.818910        -0.835920        -0.255056
 C        -0.487327        -0.687574         1.271151
 H        -3.343202        -1.870873         1.820681
 H        -0.795658        -3.241278         0.138363
 H        -2.802726        -3.237526         0.317262
 H        -2.642916        -0.946176        -1.183744
 H         1.436738         1.227682        -0.791358
 H         1.786285         0.829340         1.083370
 H         1.884006        -1.113839        -1.366891
 H         2.562030        -1.362275         0.332923
 H         0.134563        -1.198667         2.086545
 H        -0.882414         0.282469         1.691748
