19
Iteration:  4099charge 0 multiplicity 1
 O        -3.023645        -0.945928         1.467453
 C        -1.828624        -1.283429         0.869467
 C        -1.741582        -2.533191         0.140914
 C        -1.686026        -1.184311        -0.674874
 O        -0.470440        -0.656788        -1.073812
 C         0.344132        -0.597349         0.127050
 C         1.400636         0.556281         0.067944
 C         1.752393        -0.906122        -0.205205
 C        -0.466893        -0.890880         1.488131
 H        -3.311509        -1.583945         2.115563
 H        -0.882794        -3.124345         0.258848
 H        -2.716950        -2.936382        -0.056958
 H        -2.431711        -1.089523        -1.348955
 H         1.167830         1.225856        -0.733135
 H         1.786089         1.026445         0.874981
 H         1.862509        -1.331493        -1.258474
 H         2.533235        -1.444470         0.331763
 H         0.121921        -1.646386         1.998324
 H        -0.327975         0.029618         2.057412
