19
Iteration:  3109charge 0 multiplicity 1
 O        -2.991427        -0.973664         1.577837
 C        -1.774895        -1.351151         0.876073
 C        -1.601633        -2.642203         0.017982
 C        -1.723087        -1.171680        -0.684201
 O        -0.573754        -0.550052        -1.038922
 C         0.298493        -0.482608         0.153440
 C         1.459477         0.457692        -0.016872
 C         1.676464        -0.987240        -0.152234
 C        -0.479483        -0.740831         1.416197
 H        -2.924614        -1.433569         2.411628
 H        -0.816495        -3.315546         0.107191
 H        -2.536813        -3.087554        -0.210173
 H        -2.447755        -1.201702        -1.461389
 H         1.549699         1.177168        -0.854691
 H         1.718015         0.927194         0.843878
 H         1.723059        -1.517584        -1.117414
 H         2.240963        -1.478978         0.577766
 H         0.132297        -1.408114         2.079415
 H        -0.677942         0.151667         1.976605
