19
Iteration:  1251
 O        -2.739465        -0.633394         1.624837
 C        -1.776403        -1.344698         0.926025
 C        -2.300098        -2.548333        -0.075903
 C        -1.667453        -1.275022        -0.695611
 O        -0.316801        -1.085895        -1.026556
 C         0.503735        -0.678348         0.157172
 C         0.953734         0.767082         0.027187
 C         1.968494        -0.365845        -0.125214
 C        -0.296164        -1.344817         1.383238
 H        -3.431390        -1.186884         2.008854
 H        -1.841643        -3.495338        -0.253164
 H        -3.346217        -2.728451        -0.038203
 H        -2.446474        -0.759848        -1.364104
 H         0.577611         1.322831        -0.886693
 H         1.060152         1.330897         0.989185
 H         2.271342        -0.583612        -1.184321
 H         2.676234        -0.470529         0.616005
 H         0.217175        -2.349822         1.493517
 H        -0.260093        -0.687609         2.190195
