19
Iteration:   613charge 0 multiplicity 1
 O        -3.043510        -1.240156         1.564392
 C        -1.767865        -1.300086         0.899224
 C        -1.631578        -2.620230         0.135051
 C        -1.714584        -1.141043        -0.555441
 O        -0.559991        -0.501066        -1.019418
 C         0.356992        -0.360437         0.099459
 C         1.563182         0.404964        -0.136467
 C         1.666529        -1.061084        -0.150959
 C        -0.566136        -0.560183         1.344318
 H        -2.809509        -1.991189         2.166220
 H        -0.591053        -2.993433         0.022993
 H        -2.577357        -3.163733        -0.202961
 H        -2.559109        -0.889878        -1.184020
 H         1.754529         0.882581        -1.014332
 H         1.936600         0.950241         0.698430
 H         1.679286        -1.520273        -1.124989
 H         2.195632        -1.679154         0.654361
 H         0.014126        -1.011348         2.108607
 H        -1.084635         0.346144         1.836864
