19
Iteration:  4925
 O        -2.797501        -0.871233         1.671506
 C        -1.786831        -1.287225         0.858179
 C        -2.008485        -2.470998         0.062135
 C        -1.700079        -1.126318        -0.687521
 O        -0.346319        -0.905937        -1.109510
 C         0.402492        -0.677502         0.103514
 C         1.093350         0.644669        -0.056699
 C         1.835546        -0.733487         0.029681
 C        -0.354768        -1.093998         1.319214
 H        -3.641744        -0.672316         1.200290
 H        -1.275895        -3.314870         0.162761
 H        -3.082446        -2.800918        -0.044840
 H        -2.514535        -0.653618        -1.369134
 H         0.850356         0.996525        -1.004436
 H         1.240993         1.454499         0.702041
 H         2.165332        -1.166643        -0.894494
 H         2.240459        -0.762352         1.130609
 H         0.042588        -2.007684         1.843148
 H        -0.295184        -0.299878         2.044631
