19
Iteration:  4826charge 0 multiplicity 1
 O        -2.950531        -0.717574         1.600085
 C        -1.849605        -1.264696         0.864596
 C        -1.894426        -2.569181         0.053311
 C        -1.744442        -1.206393        -0.658408
 O        -0.420428        -0.925951        -1.110342
 C         0.413811        -0.587009         0.071552
 C         1.246570         0.642714         0.009351
 C         1.887310        -0.676750        -0.051309
 C        -0.425951        -1.153632         1.359466
 H        -2.935131        -1.150401         2.465800
 H        -1.008247        -3.244279        -0.067166
 H        -2.854031        -3.076979        -0.195367
 H        -2.538263        -0.820652        -1.367681
 H         1.162534         1.465374        -0.775006
 H         1.339468         1.267354         0.835248
 H         2.282741        -1.006521        -1.097564
 H         2.427344        -1.025236         0.891874
 H        -0.071793        -2.213074         1.653010
 H        -0.281005        -0.709068         2.335329
