19
Iteration:  4979charge 0 multiplicity 1
 O        -2.700763        -0.619804         1.553163
 C        -1.781126        -1.405846         0.806650
 C        -2.012460        -2.615756         0.090940
 C        -1.673191        -1.338054        -0.684031
 O        -0.389212        -0.949344        -1.053405
 C         0.318057        -0.514339         0.111465
 C         1.194374         0.674682         0.231085
 C         1.781436        -0.632747        -0.209991
 C        -0.428242        -1.129807         1.352425
 H        -3.626905        -0.597324         1.185824
 H        -1.434317        -3.558998         0.029618
 H        -3.102384        -2.859540         0.164808
 H        -2.465385        -0.816174        -1.332540
 H         1.294022         1.430217        -0.473806
 H         1.347276         0.939153         1.310355
 H         1.918710        -0.737018        -1.292050
 H         2.391838        -1.296013         0.603864
 H         0.032637        -2.068905         1.655526
 H        -0.498661        -0.378777         2.072304
