19
Iteration:   709charge 0 multiplicity 1
 O        -2.912492        -0.974472         1.601980
 C        -1.806690        -1.374283         0.861785
 C        -1.815900        -2.638495         0.093314
 C        -1.705979        -1.215032        -0.644892
 O        -0.550988        -0.617622        -1.057774
 C         0.365122        -0.530974         0.127694
 C         1.386718         0.621232        -0.055736
 C         1.813658        -0.840081        -0.140038
 C        -0.431408        -0.910474         1.376873
 H        -3.515142        -1.760136         1.720235
 H        -0.849468        -3.204114         0.118870
 H        -2.859471        -3.038341         0.098823
 H        -2.574244        -0.775222        -1.140243
 H         1.295539         1.067654        -1.002281
 H         1.667578         1.357609         0.737474
 H         2.011604        -1.211709        -1.118653
 H         2.362258        -1.358989         0.761949
 H         0.005750        -1.584260         2.112306
 H        -0.604742         0.049439         1.877716
