19
Iteration:  1705
 O        -2.997735        -1.131496         1.574010
 C        -1.766596        -1.375268         0.875402
 C        -1.633024        -2.582397         0.148262
 C        -1.727141        -1.161971        -0.659265
 O        -0.659178        -0.364129        -1.047609
 C         0.353930        -0.522408         0.071219
 C         1.529800         0.409312        -0.066408
 C         1.771793        -1.054522        -0.076293
 C        -0.566342        -0.631582         1.315304
 H        -3.099879        -1.871968         2.210173
 H        -0.748853        -3.266480         0.258488
 H        -2.447722        -3.240419        -0.008916
 H        -2.760530        -1.010861        -1.247558
 H         1.565728         0.975324        -1.024322
 H         1.944643         0.717254         0.873394
 H         2.181788        -1.647674        -0.969711
 H         2.303502        -1.480484         0.754643
 H        -0.005767        -1.181758         2.051850
 H        -0.792441         0.383870         1.679239
