19
Iteration:   432
 O        -2.953018        -1.049017         1.571187
 C        -1.745826        -1.338840         0.936463
 C        -1.726182        -2.604189         0.109392
 C        -1.729532        -1.288832        -0.558010
 O        -0.565670        -0.722800        -1.037735
 C         0.353662        -0.520204         0.042348
 C         1.439420         0.633384        -0.058401
 C         1.743754        -0.920151        -0.173747
 C        -0.461727        -0.636570         1.355797
 H        -3.550553        -1.801027         1.552622
 H        -0.962365        -3.317402         0.061934
 H        -2.717652        -3.094427         0.054882
 H        -2.648884        -0.841554        -1.004922
 H         1.290418         1.229076        -0.934247
 H         1.830588         1.141085         0.855410
 H         2.043309        -1.313829        -1.138982
 H         2.232319        -1.367700         0.629707
 H         0.234318        -1.109956         2.141343
 H        -0.746362         0.335860         1.703965
