19
Iteration:  2258
 O        -3.019563        -1.046007         1.618670
 C        -1.867632        -1.367332         0.868192
 C        -1.696436        -2.626724         0.017663
 C        -1.724922        -1.187752        -0.591722
 O        -0.567170        -0.523853        -1.066170
 C         0.372988        -0.437965         0.143578
 C         1.551566         0.463952         0.015742
 C         1.784365        -1.065388        -0.207666
 C        -0.553783        -0.686202         1.374447
 H        -3.025659        -1.477293         2.481463
 H        -0.651689        -2.963573        -0.019517
 H        -2.448716        -3.298499        -0.467999
 H        -2.633854        -1.076610        -1.314098
 H         1.685800         1.204655        -0.852892
 H         1.915579         0.958554         0.898128
 H         1.859664        -1.357973        -1.313036
 H         2.500581        -1.572580         0.530414
 H         0.009949        -1.186843         2.251735
 H        -1.037952         0.189185         1.825655
