19
Iteration:   622
 O        -3.033846        -1.240127         1.598979
 C        -1.843508        -1.304459         0.873692
 C        -1.610003        -2.566856         0.134773
 C        -1.717246        -1.131041        -0.603557
 O        -0.514907        -0.520056        -1.068606
 C         0.316629        -0.438722         0.140559
 C         1.509148         0.450156        -0.061024
 C         1.729211        -1.078972        -0.222375
 C        -0.545385        -0.572037         1.385175
 H        -2.944141        -1.653827         2.493918
 H        -0.717063        -3.201367         0.050893
 H        -2.462706        -3.288441        -0.171027
 H        -2.578156        -0.919669        -1.221724
 H         1.402172         0.894444        -1.019608
 H         1.986993         0.954896         0.813204
 H         1.790520        -1.378196        -1.312293
 H         2.242929        -1.621386         0.632948
 H        -0.121383        -1.013442         2.246339
 H        -0.703023         0.503587         1.536600
