19
Iteration:  1042charge 0 multiplicity 1
 O        -2.830411        -0.782260         1.528039
 C        -1.758241        -1.404638         0.828312
 C        -2.081179        -2.666164         0.018588
 C        -1.780826        -1.293302        -0.604738
 O        -0.524540        -0.817774        -1.014215
 C         0.437929        -0.526093         0.050485
 C         1.176961         0.702905         0.049407
 C         1.918992        -0.650949        -0.027860
 C        -0.268662        -1.037145         1.307962
 H        -3.089618        -1.357680         2.268341
 H        -1.288369        -3.326641         0.004790
 H        -3.148051        -2.906091         0.114304
 H        -2.547729        -0.828884        -1.135952
 H         1.166531         1.126466        -1.030788
 H         1.366880         1.265221         1.025152
 H         2.257315        -0.922244        -1.118895
 H         2.467108        -1.043140         0.828808
 H         0.155608        -2.028700         1.462599
 H        -0.209644        -0.461928         2.192495
