19
Iteration:  4602
 O        -2.901629        -0.637700         1.509598
 C        -1.846463        -1.438804         0.876319
 C        -1.867650        -2.768144        -0.090520
 C        -1.775272        -1.225134        -0.566537
 O        -0.530810        -0.811766        -1.014862
 C         0.355795        -0.610753         0.124317
 C         1.377545         0.685879         0.076136
 C         1.847474        -0.734342        -0.157584
 C        -0.346145        -1.007178         1.395608
 H        -3.550114        -1.084095         2.084465
 H        -0.902338        -3.313457        -0.043908
 H        -2.824310        -3.350498        -0.060991
 H        -2.666132        -0.692754        -1.086503
 H         1.350473         1.323709        -0.866714
 H         1.538348         1.171156         1.064710
 H         2.188410        -1.014809        -1.201431
 H         2.647078        -1.192587         0.495092
 H        -0.052420        -1.937758         1.995088
 H        -0.564276        -0.124203         2.110028
