19
Iteration:  1757
 O        -2.954522        -1.228430         1.510319
 C        -1.673868        -1.238967         0.865952
 C        -1.417597        -2.587421         0.075236
 C        -1.728489        -1.225643        -0.608468
 O        -0.641127        -0.340071        -1.068952
 C         0.280358        -0.363350         0.125740
 C         1.578747         0.290716        -0.027747
 C         1.480199        -1.214909        -0.117057
 C        -0.597139        -0.513030         1.396317
 H        -2.771804        -1.652263         2.357866
 H        -0.347010        -3.041996         0.089235
 H        -2.400903        -3.131054        -0.021927
 H        -2.760494        -1.283851        -1.159630
 H         1.584414         1.020366        -0.884040
 H         2.105940         0.736878         0.802919
 H         1.514055        -1.843521        -1.086448
 H         1.774019        -1.858188         0.703558
 H        -0.112626        -0.762832         2.321783
 H        -0.938435         0.560811         1.591248
