19
Iteration:  3570
 O        -2.675283        -0.610449         1.599074
 C        -1.766606        -1.369446         0.817418
 C        -2.095585        -2.603831        -0.038999
 C        -1.742543        -1.270819        -0.657197
 O        -0.406376        -1.037975        -1.085297
 C         0.366752        -0.640483         0.084334
 C         1.024827         0.762895         0.172790
 C         1.829045        -0.498302         0.008665
 C        -0.301703        -1.240430         1.258265
 H        -3.365339        -1.189226         1.915330
 H        -1.448867        -3.488772         0.003502
 H        -3.138761        -2.867732        -0.111847
 H        -2.408714        -0.572178        -1.307701
 H         1.179906         1.389844        -0.727067
 H         1.188364         1.201831         1.142312
 H         2.301700        -0.684818        -0.954601
 H         2.396950        -0.989202         0.759966
 H         0.130041        -2.215124         1.594220
 H        -0.101621        -0.478509         2.022005
