19
Iteration:  2240
 O        -2.967299        -1.062515         1.574393
 C        -1.776988        -1.335648         0.860963
 C        -1.488070        -2.535610        -0.026277
 C        -1.780802        -1.167119        -0.633277
 O        -0.589999        -0.466974        -0.980571
 C         0.306619        -0.628870         0.138187
 C         1.449131         0.349471         0.014037
 C         1.742444        -1.074635        -0.200313
 C        -0.597365        -0.604924         1.358549
 H        -2.905931        -1.447477         2.461432
 H        -0.489951        -3.020256        -0.037693
 H        -2.286890        -3.294578         0.092438
 H        -2.605401        -0.845169        -1.092925
 H         1.340284         1.241024        -0.723865
 H         1.929287         0.735725         0.902535
 H         1.743266        -1.362908        -1.280707
 H         2.202694        -1.624744         0.630644
 H        -0.221717        -1.027461         2.233058
 H        -0.866012         0.495607         1.470278
