19
Iteration:  2493charge 0 multiplicity 1
 O        -2.914925        -0.985290         1.665297
 C        -1.749709        -1.296062         0.818598
 C        -1.791570        -2.623038        -0.030146
 C        -1.676127        -1.099472        -0.655336
 O        -0.463991        -0.649266        -1.084587
 C         0.336334        -0.568055         0.142347
 C         1.291215         0.564527         0.017272
 C         1.702565        -0.996642        -0.090616
 C        -0.465429        -0.816780         1.330466
 H        -2.966199        -1.842169         2.161491
 H        -0.923835        -3.268409         0.005749
 H        -2.768615        -2.966482        -0.037051
 H        -2.746149        -0.783601        -1.074908
 H         1.297614         1.045250        -0.980428
 H         1.725806         1.113096         0.798100
 H         2.209938        -1.292052        -0.946285
 H         2.183701        -1.141785         0.805440
 H         0.036240        -1.433116         2.022932
 H        -0.565507         0.158605         1.861435
