19
Iteration:  2506
 O        -2.886531        -1.021693         1.670299
 C        -1.813012        -1.337980         0.809012
 C        -1.768869        -2.542591         0.011052
 C        -1.713771        -1.205300        -0.677735
 O        -0.483553        -0.589698        -1.039965
 C         0.342735        -0.417008         0.120336
 C         1.395495         0.594723        -0.101658
 C         1.689313        -1.038164        -0.017284
 C        -0.465835        -0.828787         1.359223
 H        -3.160577        -1.775577         2.200578
 H        -0.960581        -3.253495        -0.045517
 H        -2.720037        -3.071325        -0.127007
 H        -2.434189        -0.858560        -1.557297
 H         1.366008         1.174770        -0.960169
 H         1.776510         1.059127         0.849486
 H         1.769696        -1.584674        -0.926268
 H         2.238619        -1.457570         0.854412
 H        -0.001682        -1.668108         1.865749
 H        -0.754736        -0.062864         2.028012
