19
Iteration:  3597charge 0 multiplicity 1
 O        -2.773239        -0.702579         1.557663
 C        -1.809442        -1.374494         0.830237
 C        -2.109472        -2.608011         0.006287
 C        -1.676509        -1.200931        -0.644205
 O        -0.390554        -0.945683        -1.160037
 C         0.398041        -0.667150         0.066505
 C         1.028244         0.707539         0.127790
 C         1.943939        -0.540233        -0.071450
 C        -0.355695        -1.178490         1.380011
 H        -3.032562        -1.268549         2.297793
 H        -1.613061        -3.502344         0.401255
 H        -3.193663        -2.700498        -0.203009
 H        -2.329657        -0.649636        -1.194847
 H         1.005687         1.406069        -0.695966
 H         1.046120         0.980033         1.194396
 H         2.518524        -0.627275        -0.975514
 H         2.575788        -1.000177         0.773788
 H         0.066605        -2.098825         1.808742
 H        -0.256601        -0.419133         2.178582
