19
Iteration:  3058
 O        -3.030127        -1.155413         1.518603
 C        -1.815603        -1.322131         0.924989
 C        -1.460494        -2.564122         0.001993
 C        -1.659881        -1.219907        -0.557119
 O        -0.662038        -0.343359        -0.994205
 C         0.318029        -0.436893         0.114965
 C         1.562945         0.310791        -0.027207
 C         1.586149        -1.226262        -0.196237
 C        -0.568153        -0.486509         1.361327
 H        -2.858972        -1.886760         2.131643
 H        -0.456078        -2.996594         0.184874
 H        -2.259986        -3.297141        -0.288640
 H        -2.566829        -1.116287        -1.025498
 H         1.837775         1.027102        -0.924827
 H         1.976087         0.718988         0.857918
 H         1.879392        -1.816797        -1.104768
 H         2.036780        -1.582721         0.729177
 H        -0.000581        -0.848546         2.254882
 H        -0.894361         0.537680         1.621635
