19
Iteration:  3396charge 0 multiplicity 1
 O        -2.724845        -0.639747         1.579748
 C        -1.812910        -1.350603         0.782831
 C        -2.028323        -2.614040        -0.016887
 C        -1.674174        -1.167407        -0.588354
 O        -0.346859        -1.102444        -1.079052
 C         0.356347        -0.658784         0.085104
 C         1.072016         0.748668         0.188489
 C         1.824732        -0.543360        -0.159819
 C        -0.386185        -1.186600         1.365861
 H        -3.528461        -1.124050         1.942524
 H        -1.389933        -3.450278        -0.182671
 H        -3.090993        -2.787135        -0.188047
 H        -2.450807        -0.666229        -1.155074
 H         1.106287         1.505438        -0.589435
 H         1.353192         1.152574         1.116536
 H         2.253557        -0.341653        -1.131511
 H         2.342554        -0.971229         0.700024
 H        -0.015067        -2.209216         1.615854
 H        -0.449350        -0.565789         2.273148
