19
Iteration:   231
 O        -2.876172        -0.963046         1.464275
 C        -1.722171        -1.312989         0.893416
 C        -1.799177        -2.615871         0.038330
 C        -1.837638        -1.155799        -0.575669
 O        -0.596754        -0.746931        -1.055678
 C         0.357298        -0.550689         0.128929
 C         1.272738         0.639404        -0.174980
 C         1.797945        -0.831706         0.003565
 C        -0.323112        -0.910010         1.459117
 H        -2.892966        -1.209452         2.405284
 H        -0.847104        -3.280195        -0.206316
 H        -2.748814        -3.294195         0.017068
 H        -2.642799        -0.731649        -1.176300
 H         1.187755         0.958453        -1.222199
 H         1.413862         1.521066         0.504644
 H         2.297375        -1.324659        -0.937756
 H         2.216380        -1.090307         0.952436
 H         0.367115        -1.721324         1.861272
 H        -0.550541        -0.207367         2.289039
