19
Iteration:  1920charge 0 multiplicity 1
 O        -3.011676        -0.921431         1.497980
 C        -1.799123        -1.297732         0.875869
 C        -1.736759        -2.651668        -0.090679
 C        -1.745134        -1.179762        -0.568274
 O        -0.527345        -0.693488        -0.934108
 C         0.341300        -0.459876         0.190477
 C         1.434578         0.561658        -0.036815
 C         1.755999        -0.909472        -0.234525
 C        -0.429724        -0.881974         1.423652
 H        -3.047514        -1.574838         2.247272
 H        -0.776957        -3.114037        -0.094631
 H        -2.608333        -3.284684        -0.008146
 H        -2.601404        -0.847957        -1.104725
 H         1.183141         1.222527        -0.812567
 H         1.987045         0.893415         0.820127
 H         1.912165        -1.397405        -1.120142
 H         2.400449        -1.323319         0.541600
 H         0.112520        -1.565561         2.075219
 H        -0.608453         0.070535         2.016604
