19
Iteration:   751charge 0 multiplicity 1
 O        -2.861306        -1.061977         1.714628
 C        -1.745460        -1.252972         0.837273
 C        -1.870258        -2.509574        -0.041807
 C        -1.807218        -1.118208        -0.709303
 O        -0.385368        -0.936255        -1.010606
 C         0.353755        -0.557902         0.132754
 C         1.286182         0.621650        -0.022076
 C         1.759807        -0.781731        -0.126092
 C        -0.436762        -0.784239         1.388997
 H        -3.391236        -1.886157         1.665860
 H        -0.990562        -3.132666        -0.307201
 H        -2.849309        -3.033991        -0.008742
 H        -2.633585        -0.645634        -1.268901
 H         1.253374         1.204058        -0.945198
 H         1.502994         1.345862         0.897484
 H         1.948392        -1.151697        -1.107051
 H         2.473166        -1.408395         0.522446
 H         0.038634        -1.478877         2.178640
 H        -0.690222         0.157030         1.899754
