19
Iteration:  3060
 O        -3.027557        -1.150792         1.503458
 C        -1.837433        -1.317104         0.929878
 C        -1.457391        -2.558942        -0.004824
 C        -1.657202        -1.226129        -0.544810
 O        -0.679413        -0.349858        -0.996812
 C         0.322845        -0.447276         0.091580
 C         1.557027         0.307331        -0.032964
 C         1.599364        -1.206504        -0.197047
 C        -0.541455        -0.486507         1.379802
 H        -2.847518        -1.892269         2.147816
 H        -0.437456        -3.028200         0.264069
 H        -2.282301        -3.270639        -0.331640
 H        -2.621731        -1.127383        -1.033334
 H         1.819027         1.036363        -0.868994
 H         1.983568         0.712029         0.926194
 H         1.903931        -1.815268        -1.062021
 H         2.036251        -1.647730         0.762451
 H        -0.030732        -0.862902         2.240377
 H        -0.866044         0.546731         1.686301
