19
Iteration:  3051
 O        -3.032825        -1.179007         1.574855
 C        -1.718525        -1.338590         0.873099
 C        -1.466178        -2.577140         0.042836
 C        -1.682224        -1.186339        -0.605705
 O        -0.591323        -0.328421        -0.977749
 C         0.286746        -0.404340         0.149489
 C         1.589935         0.325566        -0.051051
 C         1.543409        -1.261029        -0.168453
 C        -0.628769        -0.499866         1.329912
 H        -3.159622        -1.881047         2.273742
 H        -0.401496        -2.949261        -0.085246
 H        -2.229936        -3.368639        -0.077361
 H        -2.606361        -0.997499        -1.235347
 H         1.699301         0.827021        -0.988573
 H         2.090863         0.776945         0.869603
 H         1.655323        -1.664262        -1.165331
 H         2.124071        -1.652663         0.721745
 H        -0.052843        -0.788488         2.173385
 H        -1.045777         0.534948         1.422265
