19
Iteration:  1500
 O        -2.839644        -0.893285         1.616734
 C        -1.773760        -1.353308         0.909519
 C        -2.018438        -2.529336        -0.028156
 C        -1.661430        -1.136020        -0.665660
 O        -0.416535        -0.939478        -0.987873
 C         0.351623        -0.585096         0.061600
 C         1.254415         0.660941         0.003853
 C         1.799913        -0.729561        -0.113678
 C        -0.444421        -0.929209         1.350038
 H        -3.119506        -1.719792         2.020798
 H        -1.239477        -3.260299        -0.093310
 H        -2.943935        -2.955600        -0.203831
 H        -2.429623        -0.506352        -1.295686
 H         1.186466         1.211064        -0.966152
 H         1.346813         1.311975         0.976878
 H         2.179469        -0.972837        -1.073292
 H         2.408114        -1.126012         0.705508
 H         0.276457        -1.789470         1.759162
 H        -0.469236        -0.244708         2.201653
