19
Iteration:  1975charge 0 multiplicity 1
 O        -2.864696        -0.973188         1.716441
 C        -1.774081        -1.308015         0.864253
 C        -1.810507        -2.524079        -0.069051
 C        -1.815488        -1.169778        -0.735763
 O        -0.477577        -0.779587        -1.090531
 C         0.323459        -0.511426         0.073429
 C         1.343763         0.593379         0.013078
 C         1.722499        -0.954719         0.034646
 C        -0.404511        -0.792393         1.308093
 H        -3.111424        -1.777908         2.196340
 H        -0.946461        -3.013677        -0.315357
 H        -2.650711        -3.184597        -0.087325
 H        -2.629664        -0.780046        -1.291135
 H         1.434955         1.381445        -0.743055
 H         1.600034         1.005996         0.880259
 H         2.001928        -1.247249        -0.956671
 H         2.206647        -1.319649         0.867923
 H         0.163493        -1.583106         1.738998
 H        -0.426943        -0.023094         2.132154
