19
Iteration:  4113
 O        -3.067475        -0.845150         1.489529
 C        -1.819337        -1.307624         0.882745
 C        -1.730924        -2.608936         0.006974
 C        -1.722811        -1.214209        -0.564806
 O        -0.448522        -0.718390        -0.965177
 C         0.389614        -0.543880         0.205707
 C         1.359238         0.546920         0.029983
 C         1.797453        -0.889926        -0.271182
 C        -0.413355        -0.852963         1.357102
 H        -3.481709        -1.673067         1.865414
 H        -0.787536        -3.210897         0.034610
 H        -2.537190        -3.352109         0.018095
 H        -2.552426        -0.746078        -1.182457
 H         1.336468         1.180508        -0.797978
 H         1.844043         0.962899         0.988762
 H         1.715642        -1.119556        -1.303841
 H         2.384799        -1.374813         0.530527
 H        -0.118866        -1.729034         1.978087
 H        -0.677655        -0.057582         2.022179
