19
Iteration:  2915
 O        -3.041535        -1.018146         1.477001
 C        -1.856346        -1.301613         0.871258
 C        -1.635410        -2.598135         0.070862
 C        -1.755794        -1.212250        -0.607102
 O        -0.638247        -0.453458        -1.041935
 C         0.392290        -0.498571         0.141548
 C         1.478874         0.459430        -0.031661
 C         1.784710        -1.063171        -0.149875
 C        -0.428072        -0.796368         1.424917
 H        -3.353475        -1.614802         2.142343
 H        -0.669454        -2.977821         0.229955
 H        -2.261329        -3.347160        -0.245596
 H        -2.918787        -1.168290        -0.929689
 H         1.577746         1.119966        -0.789639
 H         1.931287         0.885919         0.945857
 H         1.867627        -1.286880        -1.138584
 H         2.548599        -1.413508         0.491256
 H         0.194138        -1.325575         2.254719
 H        -0.625372         0.218056         1.735106
