19
Iteration:   316charge 0 multiplicity 1
 O        -2.906976        -0.920300         1.634639
 C        -1.813165        -1.317529         0.892287
 C        -1.790386        -2.590433         0.077073
 C        -1.707673        -1.190881        -0.547200
 O        -0.458941        -0.866594        -1.083625
 C         0.352359        -0.609674         0.097455
 C         1.251220         0.634374        -0.046670
 C         1.811065        -0.721582        -0.199497
 C        -0.428300        -0.917401         1.399224
 H        -3.704329        -1.390434         1.413164
 H        -0.838685        -3.169951         0.090095
 H        -2.810716        -2.970155        -0.008645
 H        -2.439278        -0.702888        -1.229464
 H         1.089144         1.147606        -1.008272
 H         1.571521         1.233104         0.890239
 H         2.132192        -1.047459        -1.255056
 H         2.429318        -1.191790         0.595650
 H         0.096384        -1.491393         2.089717
 H        -0.580666         0.132332         1.841143
