19
Iteration:  2917
 O        -3.045311        -1.023835         1.492866
 C        -1.853741        -1.300620         0.867266
 C        -1.630098        -2.600959         0.066332
 C        -1.759645        -1.220371        -0.630359
 O        -0.643349        -0.441854        -1.038116
 C         0.390339        -0.495288         0.157067
 C         1.495000         0.453585        -0.044567
 C         1.777314        -1.057007        -0.136154
 C        -0.442384        -0.795563         1.422555
 H        -3.284095        -1.670335         2.196120
 H        -0.638454        -2.926791         0.337351
 H        -2.353769        -3.381339        -0.237519
 H        -2.808670        -1.156693        -1.082024
 H         1.587620         1.162172        -0.802407
 H         1.956183         0.844112         0.951992
 H         1.821655        -1.342008        -1.152736
 H         2.573771        -1.469357         0.462602
 H         0.192518        -1.255296         2.182194
 H        -0.573534         0.257634         1.739905
