19
Iteration:  3078charge 0 multiplicity 1
 O        -3.106330        -1.119688         1.468049
 C        -1.725893        -1.308130         0.930953
 C        -1.458855        -2.574907         0.118931
 C        -1.782041        -1.179949        -0.619661
 O        -0.673481        -0.384642        -1.017267
 C         0.292374        -0.463094         0.043172
 C         1.551198         0.365253         0.020044
 C         1.670907        -1.149935        -0.141484
 C        -0.449578        -0.636868         1.366180
 H        -3.242522        -1.515762         2.386274
 H        -0.472692        -2.986234         0.018771
 H        -2.263570        -3.301782         0.127905
 H        -2.610699        -1.112507        -1.255363
 H         1.830715         0.919821        -0.957430
 H         1.751093         0.934203         0.866542
 H         1.841145        -1.355680        -1.219970
 H         2.056244        -1.769019         0.624116
 H         0.201223        -1.288012         2.054057
 H        -0.616585         0.333045         1.822933
