19
Iteration:   161charge 0 multiplicity 1
 O        -2.907692        -1.009594         1.580152
 C        -1.765767        -1.392129         0.932607
 C        -1.620311        -2.627814         0.154462
 C        -1.755014        -1.211238        -0.537779
 O        -0.629212        -0.660421        -1.109941
 C         0.307214        -0.499938        -0.032656
 C         1.425366         0.537887         0.085470
 C         1.763987        -0.943776        -0.198430
 C        -0.484873        -0.665964         1.284454
 H        -3.486552        -1.786000         1.737205
 H        -0.749889        -3.201494         0.214444
 H        -2.497940        -3.084107        -0.015184
 H        -2.614673        -1.106757        -1.187306
 H         1.536415         1.407423        -0.555132
 H         1.511034         0.905323         1.100019
 H         2.166468        -1.169338        -1.114873
 H         2.210391        -1.480180         0.681913
 H        -0.013915        -1.123520         2.076766
 H        -0.731693         0.402954         1.579187
