19
Iteration:  4067charge 0 multiplicity 1
 O        -2.967302        -0.943485         1.569421
 C        -1.858392        -1.369743         0.892962
 C        -1.727418        -2.604882         0.010443
 C        -1.798480        -1.195331        -0.670536
 O        -0.561522        -0.595051        -1.060931
 C         0.333705        -0.572235         0.085180
 C         1.492214         0.549549         0.055472
 C         1.819285        -0.972993        -0.011871
 C        -0.470645        -0.782783         1.291745
 H        -3.003617        -1.428674         2.430920
 H        -0.900882        -3.248435        -0.038424
 H        -2.569939        -3.262001        -0.120251
 H        -2.502306        -0.981469        -1.365890
 H         1.512667         1.136567        -0.845527
 H         1.668153         1.116270         0.859758
 H         2.066912        -1.269730        -1.068576
 H         2.200299        -1.480871         0.856920
 H         0.233483        -1.381638         1.882809
 H        -0.546122         0.210427         1.731564
