19
Iteration:  3123
 O        -2.944044        -0.926016         1.655929
 C        -1.860666        -1.387546         0.846037
 C        -1.754356        -2.618686        -0.075587
 C        -1.678658        -1.333426        -0.663722
 O        -0.493129        -0.552805        -0.996569
 C         0.350209        -0.503413         0.123400
 C         1.370991         0.529982        -0.019083
 C         1.780099        -1.009560        -0.130050
 C        -0.476692        -0.713090         1.397304
 H        -3.147541        -1.568254         2.397781
 H        -0.853906        -3.322830        -0.212136
 H        -2.758753        -3.099392        -0.191309
 H        -2.515166        -0.953758        -1.236644
 H         1.302103         1.011898        -1.053519
 H         1.794903         1.140617         0.853664
 H         1.933138        -1.143364        -1.192747
 H         2.492492        -1.443276         0.635583
 H         0.016495        -1.361349         2.198610
 H        -0.852807         0.242802         1.815641
