19
Iteration:   166
 O        -2.898826        -1.033595         1.561826
 C        -1.784923        -1.399336         0.912984
 C        -1.658280        -2.580549         0.220794
 C        -1.746611        -1.213781        -0.551679
 O        -0.597622        -0.663027        -1.074160
 C         0.323539        -0.499330        -0.013127
 C         1.416568         0.520862         0.086879
 C         1.775199        -0.906332        -0.204279
 C        -0.514084        -0.678998         1.238683
 H        -3.524962        -1.717822         1.782761
 H        -0.796327        -3.329035         0.075348
 H        -2.681352        -3.175528         0.094127
 H        -2.607673        -1.091463        -1.211971
 H         1.466829         1.391587        -0.594475
 H         1.660911         0.795130         1.143445
 H         2.127371        -1.092074        -1.302852
 H         2.339975        -1.318560         0.612914
 H         0.098388        -1.178011         2.108807
 H        -0.690317         0.360153         1.506523
