19
Iteration:  4457
 O        -3.099592        -0.900619         1.563454
 C        -1.885429        -1.301118         0.845423
 C        -1.428560        -2.578218         0.036753
 C        -1.730391        -1.200292        -0.611451
 O        -0.620882        -0.579849        -1.014868
 C         0.265570        -0.496196         0.095098
 C         1.470430         0.395470         0.022936
 C         1.836655        -1.019320        -0.194834
 C        -0.540691        -0.773115         1.382384
 H        -3.172020        -1.522106         2.340261
 H        -0.377611        -2.884671         0.106311
 H        -2.166801        -3.352120        -0.139670
 H        -2.600619        -1.072947        -1.328199
 H         1.644252         1.107989        -0.837628
 H         1.694377         0.722801         0.968654
 H         2.113445        -1.466413        -1.187326
 H         2.369439        -1.528169         0.643687
 H        -0.040584        -1.404947         2.071758
 H        -0.614329         0.179704         1.967537
