19
Iteration:  1622charge 0 multiplicity 1
 O        -2.971396        -1.004687         1.600110
 C        -1.813160        -1.279306         0.902587
 C        -1.928785        -2.529923         0.057982
 C        -1.678228        -1.230675        -0.674430
 O        -0.511999        -0.712448        -1.072768
 C         0.390606        -0.561749         0.040890
 C         1.338869         0.561216         0.012368
 C         1.926285        -0.827128        -0.137763
 C        -0.402585        -0.841843         1.390648
 H        -3.035700        -1.763133         2.184453
 H        -1.263820        -3.363340        -0.077218
 H        -2.944555        -2.861614         0.100664
 H        -2.523245        -1.100974        -1.326300
 H         1.356941         1.236318        -0.844556
 H         1.433569         0.976704         1.013535
 H         2.038057        -1.107911        -1.175182
 H         2.424822        -1.081070         0.765765
 H         0.069627        -1.580885         2.126176
 H        -0.627361         0.043261         1.984916
