19
Iteration:  1033
 O        -2.834018        -0.761667         1.530683
 C        -1.750467        -1.359208         0.839468
 C        -2.044286        -2.689550         0.082264
 C        -1.688691        -1.239010        -0.617533
 O        -0.483088        -0.747744        -1.041441
 C         0.391993        -0.645526         0.094681
 C         1.139239         0.662142         0.035691
 C         1.877747        -0.645890        -0.096886
 C        -0.335030        -1.086942         1.334265
 H        -3.092998        -1.529163         2.055500
 H        -1.333451        -3.457991         0.100206
 H        -3.063306        -3.116878         0.041530
 H        -2.473841        -0.656004        -1.092765
 H         1.123252         1.242503        -0.982211
 H         1.256235         1.400274         0.932486
 H         2.346532        -0.815297        -1.063967
 H         2.453296        -1.059198         0.702812
 H         0.181220        -2.014331         1.610226
 H        -0.218574        -0.383643         2.103879
