19
Iteration:  1345charge 0 multiplicity 1
 O        -2.756782        -0.663078         1.640728
 C        -1.794636        -1.337766         0.813756
 C        -2.181199        -2.534019        -0.053408
 C        -1.654627        -1.253880        -0.641586
 O        -0.387171        -1.094733        -1.016859
 C         0.372566        -0.584019         0.098965
 C         1.041577         0.744692         0.057953
 C         1.924457        -0.470278        -0.088495
 C        -0.262882        -1.290626         1.339286
 H        -3.254134        -1.375711         2.133431
 H        -1.632351        -3.506703         0.036184
 H        -3.240354        -2.675749        -0.173616
 H        -2.384036        -0.830379        -1.276954
 H         0.981064         1.262943        -0.952990
 H         1.205078         1.397596         0.944318
 H         2.336996        -0.383719        -1.151208
 H         2.379596        -0.728412         0.877859
 H         0.090656        -2.263245         1.281017
 H        -0.321863        -0.657114         2.286235
