19
Iteration:  2744charge 0 multiplicity 1
 O        -2.971543        -0.982496         1.480411
 C        -1.799987        -1.338007         0.845707
 C        -1.699046        -2.616064         0.076829
 C        -1.741956        -1.155828        -0.600108
 O        -0.584246        -0.568985        -1.039762
 C         0.316378        -0.524628         0.096953
 C         1.422549         0.473952         0.063383
 C         1.739165        -0.976460        -0.155976
 C        -0.425156        -0.799809         1.380379
 H        -2.970497        -1.445172         2.342105
 H        -0.806008        -3.283289         0.183865
 H        -2.546003        -3.242486         0.245556
 H        -2.528972        -0.715426        -1.364435
 H         1.488316         1.206785        -0.822999
 H         1.786263         0.954538         0.930641
 H         2.074057        -1.173905        -1.201917
 H         2.229682        -1.546816         0.586529
 H         0.219626        -1.467892         1.928334
 H        -0.618125         0.191647         1.931729
