19
Iteration:  2282
 O        -2.992277        -1.063486         1.538568
 C        -1.746542        -1.282939         0.859016
 C        -1.780959        -2.584775         0.038637
 C        -1.726154        -1.194357        -0.653319
 O        -0.553428        -0.553052        -1.031997
 C         0.326227        -0.456706         0.096016
 C         1.482904         0.537348        -0.001296
 C         1.654224        -0.995417        -0.107869
 C        -0.367272        -0.824833         1.366787
 H        -3.178249        -1.806307         2.183773
 H        -1.026190        -3.405473         0.203974
 H        -2.830173        -2.866115         0.316851
 H        -2.483315        -0.991517        -1.303085
 H         1.707000         1.125302        -1.012646
 H         1.804252         1.160018         0.838580
 H         2.005668        -1.509004        -1.092759
 H         2.142489        -1.326458         0.884728
 H         0.167719        -1.552933         1.937545
 H        -0.504146         0.072527         2.057195
