19
Iteration:   233charge 0 multiplicity 1
 O        -2.872939        -0.959378         1.461654
 C        -1.699151        -1.315320         0.893786
 C        -1.803694        -2.603452         0.035397
 C        -1.844669        -1.168071        -0.568499
 O        -0.604488        -0.748811        -1.058499
 C         0.338221        -0.556570         0.115300
 C         1.270024         0.634092        -0.166720
 C         1.807316        -0.821512         0.002108
 C        -0.322566        -0.907953         1.465426
 H        -2.894122        -1.237826         2.418142
 H        -0.883668        -3.277431        -0.236501
 H        -2.751240        -3.198062        -0.004627
 H        -2.623730        -0.794048        -1.190407
 H         1.251888         0.926915        -1.195455
 H         1.416553         1.490893         0.467671
 H         2.304784        -1.255458        -0.868460
 H         2.212755        -1.092145         1.007096
 H         0.389806        -1.737564         1.876958
 H        -0.546519        -0.219865         2.250403
