19
Iteration:  3640charge 0 multiplicity 1
 O        -2.914794        -0.763537         1.551706
 C        -1.789471        -1.364595         0.855192
 C        -2.001021        -2.502354        -0.172009
 C        -1.663578        -1.128215        -0.543998
 O        -0.358576        -1.030576        -0.963279
 C         0.367819        -0.610678         0.129356
 C         1.098901         0.701490         0.008481
 C         1.819076        -0.613838        -0.138244
 C        -0.319313        -1.123484         1.411813
 H        -3.117965        -1.304827         2.296772
 H        -1.179100        -3.234395        -0.141642
 H        -2.966444        -2.974848        -0.414857
 H        -2.434675        -0.650802        -1.014199
 H         1.259338         1.186686        -0.951160
 H         1.376828         1.274398         0.935437
 H         1.994027        -1.026109        -1.087217
 H         2.559530        -0.960098         0.703281
 H         0.174427        -2.067705         1.657414
 H        -0.251271        -0.430162         2.295615
