19
Iteration:    91
 O        -3.105448        -1.390579         1.590672
 C        -1.755443        -1.331132         0.957107
 C        -1.453771        -2.517083         0.052871
 C        -1.766610        -1.242709        -0.629591
 O        -0.576015        -0.457098        -0.934575
 C         0.334258        -0.338429         0.102135
 C         1.596164         0.356825        -0.255231
 C         1.622009        -1.161803        -0.067712
 C        -0.558741        -0.288780         1.341746
 H        -3.116907        -1.918947         2.427873
 H        -0.489018        -3.079171        -0.213413
 H        -2.467292        -3.188824         0.232038
 H        -2.572390        -1.169135        -1.380784
 H         1.581219         0.802896        -1.276285
 H         2.079136         1.138846         0.362267
 H         1.671702        -1.736736        -1.054721
 H         2.075793        -1.586159         0.886619
 H         0.142869        -0.619885         2.230659
 H        -1.035643         0.606642         1.578102
