19
Iteration:  4806charge 0 multiplicity 1
 O        -2.946490        -0.638651         1.543692
 C        -1.857253        -1.404824         0.866768
 C        -1.960046        -2.655476        -0.061051
 C        -1.745870        -1.288018        -0.592143
 O        -0.466352        -0.825420        -1.011703
 C         0.367831        -0.579938         0.108630
 C         1.222828         0.657025         0.063704
 C         1.943070        -0.717111        -0.060562
 C        -0.339071        -1.136905         1.267574
 H        -2.709682        -0.682506         2.470477
 H        -1.092578        -3.337842         0.156072
 H        -2.881210        -3.259777        -0.284779
 H        -2.635661        -0.769573        -1.148344
 H         1.199337         1.258625        -0.913990
 H         1.358136         1.403901         0.823980
 H         2.337883        -0.930187        -1.115042
 H         2.525002        -1.015346         0.894827
 H         0.218978        -2.022618         1.784561
 H        -0.110553        -0.309112         2.003131
