19
Iteration:   142
 O        -2.938479        -0.978743         1.702813
 C        -1.759617        -1.303813         0.878674
 C        -1.536863        -2.658539         0.000014
 C        -1.728873        -1.365179        -0.645285
 O        -0.628235        -0.554937        -1.136823
 C         0.275567        -0.433200         0.006289
 C         1.390533         0.487891         0.010703
 C         1.643299        -1.013217        -0.025589
 C        -0.448582        -0.634208         1.347678
 H        -3.392070        -1.776543         1.974296
 H        -0.535364        -2.966984        -0.108227
 H        -2.169498        -3.575511         0.024230
 H        -2.697296        -1.067653        -1.066582
 H         1.764376         0.871222        -0.968061
 H         1.669251         1.147361         0.857554
 H         1.896075        -1.211423        -1.003969
 H         2.071172        -1.624953         0.832323
 H         0.238955        -1.191659         1.991047
 H        -0.624084         0.394034         1.842081
