19
Iteration:  3312charge 0 multiplicity 1
 O        -2.756360        -0.805134         1.593473
 C        -1.759772        -1.354313         0.831237
 C        -2.119219        -2.566022        -0.152026
 C        -1.756208        -1.211507        -0.661490
 O        -0.382261        -0.949500        -0.980860
 C         0.376946        -0.599542         0.112819
 C         1.175257         0.677531         0.005103
 C         1.881653        -0.642301        -0.007913
 C        -0.372746        -1.053235         1.326919
 H        -2.997739        -1.408119         2.291677
 H        -1.424083        -3.368585        -0.149641
 H        -3.131214        -2.629996         0.162627
 H        -2.578343        -0.568812        -1.066501
 H         0.960310         1.182060        -0.943010
 H         1.175607         1.373718         0.811844
 H         2.385442        -0.937590        -0.875289
 H         2.422927        -0.962325         0.920219
 H         0.083453        -1.944405         1.775948
 H        -0.589842        -0.266925         2.110887
