19
Iteration:   439charge 0 multiplicity 1
 O        -2.961402        -1.042813         1.566528
 C        -1.730117        -1.377029         0.925958
 C        -1.729764        -2.564841         0.121457
 C        -1.711877        -1.309935        -0.568872
 O        -0.543661        -0.650495        -1.022418
 C         0.340503        -0.438013         0.063343
 C         1.440945         0.595440        -0.119745
 C         1.714389        -0.925613        -0.169720
 C        -0.453567        -0.686945         1.396873
 H        -3.512715        -1.794588         1.774506
 H        -0.870327        -3.355254         0.036655
 H        -2.732297        -3.119552         0.011242
 H        -2.601534        -1.226655        -1.190880
 H         1.536244         1.059779        -1.098393
 H         1.649691         1.164575         0.727379
 H         1.972319        -1.438748        -1.167389
 H         2.205763        -1.355893         0.712930
 H        -0.080120        -1.250179         2.236843
 H        -0.741727         0.306197         1.763846
