19
Iteration:  4849
 O        -2.822829        -0.836957         1.552680
 C        -1.736049        -1.310853         0.879632
 C        -2.060157        -2.484580         0.006514
 C        -1.704048        -1.170738        -0.671323
 O        -0.374223        -0.956805        -1.056162
 C         0.416980        -0.627553         0.098458
 C         1.103773         0.614558         0.076159
 C         1.809210        -0.723920        -0.063870
 C        -0.325751        -0.956443         1.326178
 H        -3.370962        -1.530789         1.965296
 H        -1.385900        -3.380368         0.118099
 H        -3.151100        -2.731027         0.129497
 H        -2.434221        -0.699492        -1.451730
 H         0.998007         1.231294        -0.827547
 H         1.373644         1.297974         0.841159
 H         2.077691        -0.998178        -1.122278
 H         2.481707        -1.181655         0.786569
 H         0.198614        -1.762723         1.977032
 H        -0.483462        -0.225703         2.116851
