19
Iteration:  1131charge 0 multiplicity 1
 O        -2.898790        -0.783918         1.609793
 C        -1.774024        -1.408751         0.926607
 C        -2.056428        -2.534973        -0.048780
 C        -1.681678        -1.137566        -0.576854
 O        -0.388086        -1.059852        -0.986335
 C         0.354517        -0.562857         0.096667
 C         1.155099         0.736731        -0.037998
 C         1.882846        -0.593224        -0.145887
 C        -0.258991        -1.120354         1.360002
 H        -3.559424        -1.457532         1.853243
 H        -1.435066        -3.392882        -0.286373
 H        -3.034338        -2.846306        -0.206817
 H        -2.375993        -0.421618        -1.141968
 H         1.087893         1.367168        -0.964761
 H         1.173970         1.351880         0.971027
 H         2.186647        -0.809017        -1.102653
 H         2.607087        -0.931914         0.597939
 H         0.189939        -2.053908         1.622928
 H        -0.509641        -0.451952         2.104772
