19
Iteration:  2504charge 0 multiplicity 1
 O        -2.891210        -1.016996         1.674000
 C        -1.800966        -1.335044         0.799298
 C        -1.773201        -2.553025         0.010929
 C        -1.700821        -1.190985        -0.672731
 O        -0.484498        -0.597247        -1.045236
 C         0.360865        -0.428867         0.128383
 C         1.374006         0.595186        -0.088276
 C         1.681998        -1.047316        -0.018451
 C        -0.463371        -0.834123         1.348411
 H        -3.160203        -1.793463         2.222496
 H        -0.958252        -3.258600        -0.058188
 H        -2.705769        -3.026036        -0.083395
 H        -2.453786        -0.840706        -1.535622
 H         1.360722         1.219684        -0.982040
 H         1.768621         1.026525         0.803356
 H         1.812241        -1.525417        -0.938271
 H         2.181648        -1.375011         0.840788
 H        -0.016401        -1.651148         1.853722
 H        -0.768915        -0.001634         2.029028
