19
Iteration:   134charge 0 multiplicity 1
 O        -2.883282        -1.001653         1.696764
 C        -1.785850        -1.354577         0.879752
 C        -1.467049        -2.628653         0.034661
 C        -1.754110        -1.312544        -0.693719
 O        -0.616338        -0.530625        -1.082562
 C         0.213154        -0.399257         0.062647
 C         1.437781         0.465973        -0.070281
 C         1.587620        -1.047052         0.028868
 C        -0.489273        -0.626155         1.296843
 H        -3.297503        -1.767924         2.119675
 H        -0.360844        -2.884052        -0.151366
 H        -2.324730        -3.467782         0.022103
 H        -2.603762        -1.129725        -1.376879
 H         1.617272         0.900937        -1.073860
 H         1.760197         1.183618         0.711631
 H         1.968856        -1.495190        -0.980537
 H         2.071292        -1.482034         0.910739
 H         0.068052        -1.385605         1.996087
 H        -0.631831         0.288877         1.833553
