19
Iteration:   499
 O        -2.997474        -1.253696         1.572762
 C        -1.709079        -1.332487         0.914940
 C        -1.442435        -2.583726         0.053054
 C        -1.759102        -1.270106        -0.566737
 O        -0.667299        -0.449412        -1.080370
 C         0.281374        -0.417835         0.080719
 C         1.484018         0.365676        -0.053020
 C         1.619652        -1.168497        -0.117728
 C        -0.520544        -0.418585         1.337780
 H        -2.848768        -0.539128         2.224030
 H        -0.434934        -2.915115         0.090742
 H        -2.133508        -3.316919         0.013851
 H        -2.751862        -0.944468        -0.920219
 H         1.605209         0.871154        -1.095606
 H         1.785547         1.074407         0.789046
 H         1.864169        -1.550714        -1.054127
 H         2.099683        -1.716483         0.745022
 H         0.011250        -1.005801         2.178314
 H        -0.829828         0.601859         1.660038
