19
Iteration:  1902charge 0 multiplicity 1
 O        -2.901513        -0.959527         1.472736
 C        -1.768933        -1.373748         0.918873
 C        -1.646969        -2.530348         0.058517
 C        -1.727793        -1.170465        -0.668948
 O        -0.503235        -0.617681        -1.061589
 C         0.294990        -0.529594         0.166168
 C         1.373399         0.531833         0.006198
 C         1.639240        -0.979773        -0.172289
 C        -0.473384        -0.846554         1.482886
 H        -3.089856        -1.349317         2.374440
 H        -0.741209        -3.010701        -0.068132
 H        -2.502807        -3.085145        -0.176705
 H        -2.602107        -0.829391        -1.167111
 H         1.564806         1.082387        -1.001408
 H         1.552091         1.224776         0.781848
 H         1.566524        -1.253764        -1.272917
 H         2.288562        -1.584604         0.403637
 H        -0.027131        -1.661529         2.043476
 H        -0.631486        -0.101465         2.306781
