19
Iteration:  2606
 O        -2.984104        -1.207578         1.647588
 C        -1.794972        -1.350836         0.837512
 C        -1.384597        -2.589154         0.024421
 C        -1.657627        -1.174950        -0.637425
 O        -0.660340        -0.245321        -1.088126
 C         0.281330        -0.359430         0.073523
 C         1.609662         0.290399        -0.024615
 C         1.506778        -1.245383        -0.064281
 C        -0.633551        -0.504999         1.376095
 H        -2.833309        -1.742838         2.440051
 H        -0.517778        -3.303339         0.251659
 H        -2.275083        -3.152473        -0.329206
 H        -2.489595        -1.162198        -1.272210
 H         1.832469         0.575918        -1.134475
 H         2.014709         0.900095         0.730227
 H         1.862591        -1.783441        -1.047604
 H         1.804835        -1.906563         0.798054
 H        -0.016330        -0.984109         2.205463
 H        -1.018173         0.442440         1.684489
