19
Iteration:   267charge 0 multiplicity 1
 O        -2.855990        -0.906637         1.757868
 C        -1.792573        -1.391891         0.800695
 C        -1.970374        -2.656359         0.072168
 C        -1.801618        -1.206498        -0.607015
 O        -0.443565        -0.839888        -1.148570
 C         0.415200        -0.566422         0.004165
 C         1.292988         0.722979         0.013172
 C         1.851495        -0.778806        -0.060933
 C        -0.427000        -0.812138         1.289541
 H        -3.156471        -1.753458         2.164014
 H        -0.960093        -3.111999         0.090947
 H        -2.872280        -3.099281        -0.282305
 H        -2.582218        -1.074550        -1.331184
 H         1.345174         1.214039        -0.928518
 H         1.366083         1.269924         0.894689
 H         2.276145        -1.139607        -0.900839
 H         2.381065        -1.185610         0.875034
 H         0.155238        -1.532339         2.019988
 H        -0.786114         0.035189         1.808638
