19
Iteration:  4867charge 0 multiplicity 1
 O        -2.806671        -0.805104         1.662454
 C        -1.768430        -1.347824         0.881367
 C        -2.101652        -2.578067        -0.132304
 C        -1.721872        -1.183694        -0.634020
 O        -0.398367        -1.047982        -1.050756
 C         0.421228        -0.608646         0.094527
 C         1.210740         0.637282         0.008794
 C         1.904610        -0.659690        -0.100840
 C        -0.414206        -0.923937         1.447597
 H        -3.571340        -1.399591         1.570371
 H        -1.444987        -3.393925        -0.476181
 H        -3.176373        -2.701727        -0.225317
 H        -2.470729        -0.478633        -0.935925
 H         1.150923         1.352994        -0.925372
 H         1.189338         1.143735         0.966495
 H         2.429203        -1.042882        -1.021464
 H         2.635064        -0.964716         0.623140
 H         0.026960        -1.522225         2.219378
 H        -0.652572         0.028092         1.941800
