19
Iteration:  1157
 O        -2.759609        -0.741943         1.602453
 C        -1.775320        -1.336831         0.812420
 C        -2.141506        -2.583063         0.047730
 C        -1.722597        -1.222038        -0.647295
 O        -0.404905        -1.067762        -1.067149
 C         0.367608        -0.505995         0.159860
 C         1.167555         0.833752         0.067025
 C         1.859121        -0.586664        -0.091798
 C        -0.276434        -1.202751         1.316785
 H        -3.406721        -1.403088         1.884511
 H        -1.351748        -3.379402        -0.014805
 H        -3.198744        -3.022385        -0.127060
 H        -2.503125        -0.621245        -1.193196
 H         0.873615         1.284627        -0.854304
 H         1.326553         1.465293         0.874951
 H         2.151408        -0.982847        -1.129369
 H         2.544890        -0.967012         0.644716
 H         0.102454        -2.216953         1.443061
 H        -0.446854        -0.551179         2.234119
