19
Iteration:  3249charge 0 multiplicity 1
 O        -2.911843        -0.745920         1.449038
 C        -1.797858        -1.333397         0.825462
 C        -1.932945        -2.612076         0.054506
 C        -1.766961        -1.191318        -0.604729
 O        -0.473253        -0.862624        -1.133826
 C         0.344859        -0.563006         0.128398
 C         1.290491         0.660566         0.145895
 C         1.813724        -0.700013        -0.158242
 C        -0.284148        -1.111364         1.456831
 H        -3.065796        -1.420103         2.139119
 H        -1.062233        -3.305875         0.177502
 H        -2.920074        -3.133042         0.023950
 H        -2.708498        -0.832187        -1.150715
 H         1.119584         1.416957        -0.711040
 H         1.504173         1.138696         1.109627
 H         1.998322        -0.745502        -1.214637
 H         2.527951        -1.222202         0.627580
 H         0.110728        -2.072597         1.732545
 H        -0.160015        -0.467950         2.336969
