19
Iteration:  4261charge 0 multiplicity 1
 O        -3.124313        -0.944132         1.483066
 C        -1.873810        -1.330649         0.901054
 C        -1.555418        -2.566663         0.079707
 C        -1.676144        -1.279099        -0.637273
 O        -0.553192        -0.536593        -0.955255
 C         0.405908        -0.478613         0.145789
 C         1.547887         0.468176        -0.079933
 C         1.673508        -0.988579        -0.176918
 C        -0.519742        -0.799944         1.397550
 H        -3.328397        -1.659836         2.122306
 H        -0.673898        -3.206770         0.073625
 H        -2.466860        -2.996264        -0.248774
 H        -2.660377        -1.172303        -1.107598
 H         1.476878         1.067403        -0.879809
 H         1.839701         1.111211         0.804940
 H         2.017217        -1.366063        -1.118960
 H         2.358663        -1.410523         0.616691
 H        -0.017482        -1.586754         1.907097
 H        -0.551993         0.033857         2.126148
