19
Iteration:   159
 O        -2.919755        -0.999575         1.595548
 C        -1.752201        -1.376160         0.935246
 C        -1.607186        -2.644232         0.122296
 C        -1.759791        -1.221086        -0.539064
 O        -0.637080        -0.654252        -1.125507
 C         0.304497        -0.501439        -0.036562
 C         1.424917         0.546529         0.083931
 C         1.755559        -0.954638        -0.178772
 C        -0.475689        -0.650289         1.301586
 H        -3.432865        -1.794072         1.714565
 H        -0.632827        -3.200643         0.271379
 H        -2.527371        -3.133638        -0.076030
 H        -2.633392        -1.104884        -1.160436
 H         1.575496         1.368998        -0.577701
 H         1.452531         0.937551         1.087712
 H         2.218159        -1.241361        -1.162630
 H         2.136662        -1.538604         0.649874
 H         0.022995        -1.148666         2.150917
 H        -0.765790         0.342929         1.615719
