19
Iteration:  4313charge 0 multiplicity 1
 O        -2.999146        -1.151541         1.565807
 C        -1.733550        -1.311449         0.893791
 C        -1.585162        -2.643181        -0.074726
 C        -1.722256        -1.265681        -0.658679
 O        -0.608276        -0.453742        -1.080322
 C         0.296333        -0.350209         0.114691
 C         1.566401         0.351851         0.072172
 C         1.612306        -1.168765        -0.081887
 C        -0.517066        -0.439012         1.363034
 H        -2.937060        -1.505329         2.453852
 H        -0.671825        -3.236155        -0.122784
 H        -2.457530        -3.254913        -0.004771
 H        -2.598940        -1.159796        -1.233578
 H         1.902731         0.824847        -0.848953
 H         1.920031         0.900312         1.078905
 H         1.743967        -1.661918        -0.998279
 H         1.899144        -1.771471         0.740935
 H         0.060864        -0.669344         2.276524
 H        -0.965330         0.550271         1.644492
