19
Iteration:  3648charge 0 multiplicity 1
 O        -2.888244        -0.780172         1.540542
 C        -1.784518        -1.377652         0.920161
 C        -2.022019        -2.525189        -0.126083
 C        -1.705434        -1.149610        -0.552319
 O        -0.347036        -1.001699        -1.002606
 C         0.386574        -0.646595         0.144939
 C         1.176313         0.731377        -0.015141
 C         1.797123        -0.604796        -0.094274
 C        -0.343218        -1.156914         1.374835
 H        -3.168816        -1.380455         2.218159
 H        -1.208817        -3.225246        -0.318805
 H        -3.056470        -2.765913        -0.414768
 H        -2.349685        -0.403059        -1.151973
 H         0.916203         1.237593        -0.987465
 H         1.492578         1.323368         0.924239
 H         2.105652        -1.006497        -1.072468
 H         2.551887        -0.881859         0.640581
 H         0.154278        -1.946325         1.944194
 H        -0.536283        -0.288717         2.089394
