19
Iteration:  3849
 O        -2.938394        -1.043226         1.678409
 C        -1.743766        -1.384260         0.857216
 C        -1.804157        -2.637507        -0.075701
 C        -1.767937        -1.174557        -0.574820
 O        -0.542513        -0.665501        -1.082889
 C         0.350271        -0.403174         0.108490
 C         1.584706         0.567713        -0.059308
 C         1.729521        -0.960134         0.029746
 C        -0.539068        -0.727546         1.286121
 H        -3.420005        -1.868733         1.923583
 H        -0.900007        -3.268092        -0.229791
 H        -2.831400        -3.048268        -0.215789
 H        -2.683309        -0.787447        -1.256423
 H         1.700223         0.924216        -1.029590
 H         2.091147         1.241576         0.669402
 H         2.083135        -1.492835        -0.888610
 H         1.901627        -1.223110         1.124503
 H         0.083325        -1.275658         2.035356
 H        -0.856657         0.182058         1.782143
