19
Iteration:  2816
 O        -2.893969        -1.006487         1.555640
 C        -1.663247        -1.378121         0.893791
 C        -1.824540        -2.481771        -0.005842
 C        -1.835936        -1.066017        -0.617384
 O        -0.504002        -0.739644        -1.142773
 C         0.326122        -0.536691         0.049578
 C         1.359361         0.507001         0.005109
 C         1.772833        -0.885550        -0.010613
 C        -0.446727        -0.846396         1.440459
 H        -3.206752        -1.795212         2.002391
 H        -1.028977        -3.215903        -0.021707
 H        -2.673323        -3.062483         0.176673
 H        -2.716335        -0.586226        -1.225271
 H         1.548993         1.034536        -1.004501
 H         1.524229         1.156076         0.781621
 H         2.138292        -1.307312        -0.969850
 H         2.222910        -1.189405         0.892735
 H         0.137994        -1.531053         2.119631
 H        -0.645246         0.094063         1.877504
