19
Iteration:  1840
 O        -2.961389        -1.180904         1.646846
 C        -1.758392        -1.331834         0.878871
 C        -1.670758        -2.571675        -0.007688
 C        -1.728116        -1.173306        -0.623926
 O        -0.528668        -0.524703        -1.108992
 C         0.308823        -0.439326         0.111033
 C         1.540356         0.429176         0.002864
 C         1.638120        -1.097518        -0.082641
 C        -0.568060        -0.509241         1.354424
 H        -3.050921        -1.947462         2.266309
 H        -0.728475        -3.239455        -0.115620
 H        -2.561514        -3.237793        -0.203405
 H        -2.627047        -0.798307        -1.119687
 H         1.657075         0.970317        -1.017704
 H         1.933148         0.968243         0.861861
 H         1.850783        -1.663218        -1.077972
 H         2.086662        -1.516052         0.822615
 H         0.121276        -1.016955         2.098819
 H        -0.800530         0.508124         1.585731
