19
Iteration:  3378
 O        -2.797015        -0.703536         1.600045
 C        -1.760287        -1.334030         0.870368
 C        -2.126085        -2.502191        -0.062088
 C        -1.720665        -1.261964        -0.715168
 O        -0.301459        -0.980153        -1.055389
 C         0.447835        -0.672035         0.183502
 C         1.019874         0.683160         0.115281
 C         1.866635        -0.552609        -0.134263
 C        -0.322579        -1.164991         1.362442
 H        -3.333765        -1.422545         2.024848
 H        -1.425323        -3.359462        -0.022343
 H        -3.169003        -2.786363        -0.278493
 H        -2.455680        -0.636238        -1.334227
 H         0.737516         1.257208        -0.751818
 H         1.036294         1.153304         1.137195
 H         2.099082        -0.983336        -1.062270
 H         2.730695        -0.917904         0.505961
 H         0.161409        -2.028223         1.871998
 H        -0.459537        -0.274963         2.055397
