19
Iteration:  2535
 O        -3.035229        -1.051818         1.608243
 C        -1.814613        -1.379726         0.877199
 C        -1.642942        -2.613029        -0.023046
 C        -1.757595        -1.163360        -0.572534
 O        -0.613125        -0.500583        -1.035495
 C         0.404105        -0.457299         0.086992
 C         1.516556         0.544534        -0.085371
 C         1.747786        -1.083675        -0.076702
 C        -0.470694        -0.734006         1.374768
 H        -3.329947        -1.845543         2.070240
 H        -0.691496        -3.134185        -0.165238
 H        -2.516712        -3.195733        -0.081270
 H        -2.651588        -0.795724        -1.162628
 H         1.529852         1.078677        -1.068728
 H         2.002984         1.006195         0.748181
 H         2.134443        -1.516885        -0.975517
 H         2.221488        -1.560989         0.725099
 H        -0.060250        -1.367595         2.161837
 H        -0.874657         0.225197         1.910339
