19
Iteration:  4342
 O        -2.933861        -1.312759         1.641733
 C        -1.771441        -1.262046         0.862640
 C        -1.523944        -2.477184        -0.007458
 C        -1.762697        -1.125868        -0.642830
 O        -0.569563        -0.440281        -1.095098
 C         0.300978        -0.347079         0.114858
 C         1.662518         0.346865        -0.041556
 C         1.565793        -1.258911         0.070278
 C        -0.664098        -0.439102         1.241628
 H        -2.974360        -2.143884         2.193829
 H        -0.537985        -2.939432        -0.178976
 H        -2.380690        -3.190966        -0.019684
 H        -2.593384        -1.082296        -1.258483
 H         1.848896         0.526858        -1.145124
 H         2.057536         0.952025         0.738863
 H         1.717123        -2.002269        -0.729941
 H         1.663064        -1.649995         1.066983
 H        -0.193064        -0.791438         2.202583
 H        -1.052333         0.547967         1.513082
