19
Iteration:  3538charge 0 multiplicity 1
 O        -2.765301        -0.649097         1.630196
 C        -1.786987        -1.297047         0.859401
 C        -2.098797        -2.501027        -0.061848
 C        -1.673024        -1.179653        -0.664230
 O        -0.294560        -1.080665        -1.021146
 C         0.414636        -0.678663         0.155111
 C         0.917029         0.724778         0.059596
 C         1.857332        -0.496125        -0.044985
 C        -0.286386        -1.332761         1.284506
 H        -3.503438        -1.277849         1.878627
 H        -1.434110        -3.365282        -0.164653
 H        -3.145670        -2.759700        -0.114339
 H        -2.306625        -0.452246        -1.293827
 H         0.735901         1.252771        -0.874819
 H         1.131365         1.422982         0.847962
 H         2.074502        -0.733911        -1.054065
 H         2.517892        -0.777642         0.747776
 H         0.036193        -2.363809         1.368462
 H        -0.071250        -0.738752         2.170525
