19
Iteration:   543
 O        -2.861894        -1.379293         1.828526
 C        -1.841658        -1.218043         0.866403
 C        -1.446347        -2.545473         0.023325
 C        -1.693584        -1.286093        -0.684011
 O        -0.636602        -0.391384        -1.112975
 C         0.290011        -0.328771         0.043475
 C         1.628709         0.307871        -0.002525
 C         1.554398        -1.219427        -0.071105
 C        -0.657277        -0.353136         1.285717
 H        -3.798960        -1.188018         1.595986
 H        -0.430855        -2.890933        -0.050255
 H        -2.207411        -3.240311        -0.024855
 H        -2.611237        -1.338201        -1.279231
 H         1.649293         0.871808        -1.050184
 H         2.234471         0.824516         0.765397
 H         1.565128        -1.661790        -1.087518
 H         1.894083        -1.855111         0.746634
 H        -0.103044        -0.680425         2.216963
 H        -1.038317         0.615234         1.492865
