19
Iteration:  3053charge 0 multiplicity 1
 O        -3.035273        -1.171268         1.561178
 C        -1.737137        -1.332106         0.887099
 C        -1.467663        -2.578866         0.031902
 C        -1.669235        -1.196248        -0.588938
 O        -0.609254        -0.330415        -0.982497
 C         0.292487        -0.411540         0.149317
 C         1.584645         0.326943        -0.048252
 C         1.554899        -1.261145        -0.181713
 C        -0.621097        -0.497066         1.332067
 H        -3.074637        -1.899586         2.244089
 H        -0.450458        -2.943359        -0.030951
 H        -2.196705        -3.333829        -0.127589
 H        -2.633673        -1.026398        -1.199216
 H         1.742358         0.841631        -0.918562
 H         2.058566         0.773595         0.869603
 H         1.719878        -1.702917        -1.142550
 H         2.093322        -1.586462         0.714048
 H        -0.011176        -0.807381         2.202239
 H        -0.999505         0.529337         1.454930
