19
Iteration:   595charge 0 multiplicity 1
 O        -2.949591        -1.203490         1.572245
 C        -1.742527        -1.372866         0.939653
 C        -1.519134        -2.576895        -0.009026
 C        -1.776037        -1.240955        -0.628169
 O        -0.675789        -0.423477        -1.010239
 C         0.286191        -0.342590         0.100609
 C         1.649426         0.412576        -0.188059
 C         1.554636        -1.133190        -0.025080
 C        -0.497298        -0.512360         1.414995
 H        -3.480175        -2.038504         1.675651
 H        -0.632432        -3.219542        -0.035092
 H        -2.339510        -3.212284         0.072202
 H        -2.697707        -0.974294        -1.168393
 H         1.751364         0.839737        -1.254436
 H         2.069164         0.928324         0.662618
 H         1.728000        -1.719273        -0.855072
 H         1.896704        -1.423969         0.958274
 H         0.110201        -1.057087         2.235509
 H        -0.680309         0.520676         1.760128
