19
Iteration:  3554
 O        -2.672377        -0.633732         1.596903
 C        -1.749020        -1.360122         0.823742
 C        -2.086070        -2.519928         0.013089
 C        -1.692035        -1.151108        -0.657919
 O        -0.343435        -1.119629        -1.113300
 C         0.318738        -0.573106         0.081737
 C         1.051158         0.797948         0.116783
 C         1.836828        -0.557572        -0.071166
 C        -0.378929        -1.306683         1.358078
 H        -3.395900        -1.280043         1.799164
 H        -1.145949        -3.103515        -0.052503
 H        -3.126722        -2.848238        -0.208177
 H        -2.527266        -0.802490        -1.116804
 H         0.747632         1.395232        -0.750143
 H         0.755046         1.156429         1.127437
 H         2.503568        -0.796869        -0.961705
 H         2.427702        -0.762790         0.883445
 H         0.096689        -2.325672         1.419498
 H        -0.485278        -1.122439         2.447639
