19
Iteration:  3794
 O        -3.007538        -0.898255         1.553756
 C        -1.771476        -1.260699         0.893692
 C        -1.772205        -2.574392         0.018579
 C        -1.698710        -1.177414        -0.650631
 O        -0.445536        -0.787870        -1.099249
 C         0.353498        -0.540323         0.118662
 C         1.301192         0.607908         0.068511
 C         1.758752        -0.880918        -0.145181
 C        -0.416834        -0.924956         1.405701
 H        -3.264976        -1.514878         2.303458
 H        -0.809306        -3.048378         0.129959
 H        -2.705966        -3.125329        -0.283273
 H        -2.553360        -0.833051        -1.269012
 H         1.234647         1.389757        -0.650487
 H         1.407424         0.955865         1.087157
 H         1.944623        -1.132598        -1.260290
 H         2.472258        -1.396247         0.461495
 H         0.133291        -1.774413         1.854197
 H        -0.472812        -0.122469         2.140406
