19
Iteration:  3573charge 0 multiplicity 1
 O        -2.692865        -0.595933         1.606437
 C        -1.756412        -1.383466         0.833971
 C        -2.116999        -2.609102        -0.033302
 C        -1.739027        -1.301403        -0.663834
 O        -0.396108        -1.011689        -1.081289
 C         0.365615        -0.654291         0.110558
 C         1.015279         0.760361         0.186052
 C         1.841112        -0.506904         0.002811
 C        -0.288410        -1.221890         1.207633
 H        -3.374055        -1.260823         1.937810
 H        -1.403198        -3.444629        -0.148564
 H        -3.206801        -2.804416        -0.099991
 H        -2.409150        -0.663127        -1.301438
 H         1.186725         1.311381        -0.792551
 H         1.116573         1.221578         1.210231
 H         2.374664        -0.698161        -0.999069
 H         2.440173        -1.008504         0.715617
 H         0.117575        -2.100357         1.656802
 H        -0.075816        -0.423866         1.993285
