19
Iteration:  1348charge 0 multiplicity 1
 O        -2.756120        -0.678056         1.611137
 C        -1.776006        -1.315321         0.827835
 C        -2.159614        -2.537757        -0.042291
 C        -1.655248        -1.246705        -0.634738
 O        -0.390849        -1.079611        -0.986578
 C         0.376846        -0.588778         0.094912
 C         1.047936         0.729465         0.058848
 C         1.879350        -0.469262        -0.077366
 C        -0.245502        -1.278942         1.307958
 H        -3.182577        -1.341712         2.150927
 H        -1.654216        -3.432797         0.037967
 H        -3.208881        -2.691401        -0.190168
 H        -2.464094        -0.806297        -1.346289
 H         0.992350         1.217941        -0.970513
 H         1.175064         1.444062         0.937250
 H         2.240749        -0.453845        -1.140483
 H         2.466619        -0.762853         0.777802
 H        -0.043615        -2.377041         1.395498
 H        -0.381051        -0.780448         2.237786
