19
Iteration:    77
 O        -3.050254        -1.433159         1.482870
 C        -1.747619        -1.268856         0.967327
 C        -1.419546        -2.524860         0.059990
 C        -1.770797        -1.168640        -0.460786
 O        -0.659383        -0.548364        -1.007057
 C         0.304263        -0.360324         0.081794
 C         1.651248         0.363096        -0.222834
 C         1.581479        -1.147422        -0.122811
 C        -0.587461        -0.273151         1.382150
 H        -2.908493        -1.810543         2.373319
 H        -0.394145        -2.803673         0.016956
 H        -2.135262        -3.332877         0.005201
 H        -2.684955        -0.887756        -0.958989
 H         1.893466         0.816054        -1.203629
 H         2.091547         0.731404         0.701617
 H         1.566338        -1.734952        -0.948868
 H         2.067132        -1.658370         0.788900
 H        -0.112144        -0.443286         2.348509
 H        -0.991747         0.794674         1.344390
