19
Iteration:  3502
 O        -2.780113        -0.712276         1.585359
 C        -1.721395        -1.445042         0.854588
 C        -2.236878        -2.422834        -0.076577
 C        -1.658811        -1.114887        -0.645024
 O        -0.244161        -1.204081        -1.012511
 C         0.419119        -0.709569         0.099524
 C         0.902183         0.716724         0.085370
 C         1.936459        -0.406124        -0.088208
 C        -0.360765        -1.223205         1.337745
 H        -3.062984        -1.178045         2.442069
 H        -1.706035        -3.228835        -0.639484
 H        -3.330721        -2.407350         0.063355
 H        -2.260599        -0.315565        -0.956892
 H         0.713199         1.230662        -0.833100
 H         1.095697         1.322534         0.963558
 H         2.185500        -0.730155        -1.114223
 H         2.878417        -0.639782         0.507747
 H         0.060831        -2.216837         1.738222
 H        -0.342104        -0.521824         2.154983
