19
Iteration:  1662charge 0 multiplicity 1
 O        -2.936774        -0.992816         1.622507
 C        -1.747457        -1.424908         0.919989
 C        -1.713749        -2.531245        -0.079678
 C        -1.761433        -1.143025        -0.575298
 O        -0.454838        -0.726544        -1.097245
 C         0.246151        -0.483810         0.102379
 C         1.426190         0.509062        -0.102484
 C         1.706311        -0.910926        -0.065773
 C        -0.491600        -0.776434         1.403365
 H        -3.108859        -1.485941         2.470066
 H        -0.715945        -2.998232        -0.215851
 H        -2.577952        -3.131453        -0.279088
 H        -2.642211        -0.570896        -1.166173
 H         1.472584         1.278622        -0.927178
 H         1.633042         1.026257         0.812428
 H         1.867947        -1.681555        -0.916380
 H         2.230305        -1.200687         0.818759
 H         0.131098        -1.326950         2.139437
 H        -0.809665         0.141678         1.927523
