19
Iteration:  3333
 O        -2.900105        -0.815250         1.585200
 C        -1.809758        -1.389859         0.892325
 C        -2.103430        -2.503591        -0.104484
 C        -1.710365        -1.088473        -0.598529
 O        -0.370988        -1.103032        -1.044785
 C         0.380954        -0.557068         0.071646
 C         1.144738         0.780702        -0.075690
 C         1.850244        -0.638821         0.054952
 C        -0.255103        -1.131075         1.392384
 H        -2.936118        -1.387490         2.381148
 H        -1.284608        -3.050483        -0.471921
 H        -3.073303        -2.786669        -0.430060
 H        -2.483354        -0.441509        -1.044526
 H         1.222783         1.298971        -1.027593
 H         1.372810         1.392917         0.754416
 H         2.197490        -1.089427        -0.813205
 H         2.470094        -0.991826         0.867394
 H         0.206303        -2.115336         1.605672
 H        -0.133219        -0.398380         2.242974
