19
Iteration:  3878
 O        -2.983095        -1.186499         1.594329
 C        -1.708815        -1.295152         0.856265
 C        -1.654016        -2.488938        -0.042475
 C        -1.756032        -1.143468        -0.628452
 O        -0.543103        -0.597231        -1.058629
 C         0.338565        -0.436056         0.166764
 C         1.411229         0.432085        -0.096121
 C         1.713352        -1.126300        -0.005392
 C        -0.534133        -0.529454         1.396478
 H        -2.886485        -2.016519         2.056561
 H        -0.819172        -3.150536        -0.216342
 H        -2.600782        -3.077930        -0.035074
 H        -2.525040        -0.937411        -1.280658
 H         1.656701         0.873393        -1.082146
 H         1.901536         0.971461         0.760461
 H         1.787608        -1.549091        -1.047461
 H         2.162488        -1.504474         0.850963
 H        -0.000414        -1.100189         2.151154
 H        -0.796386         0.490478         1.809319
