19
Iteration:  3690charge 0 multiplicity 1
 O        -2.881760        -0.865898         1.708783
 C        -1.803387        -1.312383         0.844824
 C        -2.039155        -2.500880        -0.083294
 C        -1.690848        -1.199918        -0.651015
 O        -0.402724        -0.975223        -1.049901
 C         0.404747        -0.586481         0.024101
 C         1.236477         0.732360         0.024316
 C         1.851824        -0.696430         0.018604
 C        -0.352533        -1.023107         1.316231
 H        -3.383796        -1.648460         2.016396
 H        -1.425889        -3.380487        -0.249587
 H        -3.068149        -2.774299        -0.323773
 H        -2.593695        -0.775181        -1.294105
 H         1.076635         1.198305        -0.939026
 H         1.093008         1.266850         1.007687
 H         2.373829        -0.892826        -0.938383
 H         2.464704        -1.102531         0.803427
 H         0.124395        -1.868266         1.844568
 H        -0.198564        -0.118219         1.910996
