19
Iteration:  4662
 O        -2.946256        -0.830114         1.617675
 C        -1.826615        -1.300500         0.842948
 C        -1.959840        -2.523030        -0.019815
 C        -1.767706        -1.221907        -0.653791
 O        -0.492003        -0.925608        -1.018621
 C         0.442879        -0.565266         0.042365
 C         1.285303         0.607419         0.038280
 C         1.949027        -0.711737        -0.061637
 C        -0.366539        -1.006860         1.301875
 H        -2.955204        -1.271896         2.516539
 H        -1.260264        -3.316852        -0.104918
 H        -2.934054        -2.896987        -0.289577
 H        -2.435556        -0.717210        -1.193929
 H         1.334498         1.183910        -0.791536
 H         1.215087         1.306845         0.862760
 H         2.346919        -0.888575        -1.016295
 H         2.376987        -1.080387         0.874954
 H        -0.061549        -1.913885         1.926102
 H        -0.503517        -0.246466         2.045943
