19
Iteration:  1918charge 0 multiplicity 1
 O        -2.997537        -0.923296         1.491487
 C        -1.783177        -1.294568         0.859789
 C        -1.728672        -2.632625        -0.082331
 C        -1.743763        -1.185734        -0.561540
 O        -0.528611        -0.697817        -0.939542
 C         0.332162        -0.468544         0.198473
 C         1.433075         0.571060        -0.042147
 C         1.728694        -0.911271        -0.225901
 C        -0.443347        -0.872144         1.439639
 H        -3.036841        -1.552742         2.251226
 H        -0.690587        -3.121621        -0.080901
 H        -2.626601        -3.317585        -0.050128
 H        -2.641348        -0.822305        -1.116071
 H         1.194643         1.186848        -0.848800
 H         2.037962         0.840669         0.860218
 H         1.892595        -1.359102        -1.191280
 H         2.410210        -1.359713         0.556240
 H         0.121956        -1.651707         2.046722
 H        -0.601879         0.036336         2.009576
