19
Iteration:  4633
 O        -2.928089        -0.793313         1.507199
 C        -1.781277        -1.283459         0.807870
 C        -1.877554        -2.585088         0.140791
 C        -1.648008        -1.168280        -0.656210
 O        -0.397529        -0.780225        -1.110525
 C         0.346800        -0.641970         0.139186
 C         1.175794         0.603401         0.089772
 C         1.765022        -0.791161        -0.182254
 C        -0.347001        -1.065035         1.381857
 H        -3.006080        -1.151428         2.418796
 H        -1.140823        -3.389392         0.316061
 H        -2.958312        -2.886397         0.064391
 H        -2.448333        -0.824710        -1.337070
 H         0.974000         1.411727        -0.607632
 H         1.469627         1.009291         1.042115
 H         2.017822        -1.204958        -1.212611
 H         2.480176        -0.998413         0.686740
 H        -0.145050        -2.005770         1.810286
 H        -0.445162        -0.194424         2.111393
