19
Iteration:  1079
 O        -2.823484        -0.880606         1.682098
 C        -1.812244        -1.311722         0.870606
 C        -2.005587        -2.506511        -0.086376
 C        -1.751554        -1.160366        -0.639502
 O        -0.339489        -1.012310        -1.078710
 C         0.365606        -0.608968         0.073290
 C         1.110582         0.741002         0.031584
 C         1.837369        -0.692103        -0.067331
 C        -0.357100        -1.026864         1.308583
 H        -2.633390        -1.042906         2.634650
 H        -1.145145        -3.254616        -0.036317
 H        -2.917666        -3.071755        -0.140840
 H        -2.550489        -0.582726        -1.246083
 H         1.123027         1.300447        -0.893198
 H         1.237667         1.447624         0.874724
 H         2.119326        -0.915584        -1.021873
 H         2.410137        -1.181020         0.697793
 H        -0.010191        -1.968704         1.766316
 H        -0.477392        -0.257608         2.118613
