19
Iteration:  1736
 O        -3.008667        -1.137472         1.582540
 C        -1.712528        -1.317300         0.897052
 C        -1.418851        -2.564350         0.040606
 C        -1.731246        -1.181878        -0.661408
 O        -0.572313        -0.511049        -0.996345
 C         0.245220        -0.409427         0.128370
 C         1.533498         0.318285        -0.026818
 C         1.510168        -1.165226        -0.164668
 C        -0.596687        -0.466350         1.355744
 H        -3.071572        -1.747266         2.334717
 H        -0.288582        -2.567471        -0.004413
 H        -2.012714        -3.476516        -0.097139
 H        -2.643830        -0.890679        -1.331162
 H         1.948734         1.016319        -0.786029
 H         1.876997         0.692835         0.920107
 H         1.514364        -1.327049        -1.296502
 H         2.019328        -1.901119         0.433471
 H         0.012808        -1.037797         2.012164
 H        -0.837371         0.462540         1.911727
