19
Iteration:  3365charge 0 multiplicity 1
 O        -2.841787        -0.811661         1.572767
 C        -1.843182        -1.286369         0.762362
 C        -2.148775        -2.532941         0.016782
 C        -1.683397        -1.110540        -0.624144
 O        -0.325198        -0.990835        -1.039621
 C         0.459192        -0.674570         0.170447
 C         0.990259         0.661447        -0.004792
 C         1.998025        -0.589128        -0.094073
 C        -0.321502        -1.133904         1.399735
 H        -3.048522        -1.516911         2.183515
 H        -1.369796        -3.207413        -0.229596
 H        -3.140602        -2.757919        -0.324244
 H        -2.482445        -0.586122        -1.202279
 H         0.799786         1.299647        -0.841815
 H         1.253950         1.265022         0.839341
 H         2.160594        -0.890576        -1.072524
 H         2.582758        -0.727169         0.814187
 H         0.032069        -2.160738         1.750788
 H        -0.325463        -0.482686         2.337182
