19
Iteration:  1673
 O        -2.943466        -1.022277         1.600822
 C        -1.804856        -1.387462         0.931601
 C        -1.697123        -2.570448        -0.098542
 C        -1.733118        -1.199464        -0.642694
 O        -0.550129        -0.649720        -1.047761
 C         0.327474        -0.480443         0.094684
 C         1.475773         0.555533        -0.113766
 C         1.662983        -0.975932        -0.000331
 C        -0.438635        -0.708450         1.428631
 H        -3.038041        -1.596851         2.401785
 H        -0.865659        -3.296673        -0.180850
 H        -2.638068        -3.039768        -0.231386
 H        -2.784280        -0.837730        -1.110298
 H         1.441285         1.009253        -1.159480
 H         1.885277         1.094773         0.714584
 H         1.925377        -1.404398        -1.039110
 H         2.098396        -1.399327         0.875141
 H         0.234023        -1.371347         1.999930
 H        -0.685428         0.205208         1.986696
