19
Iteration:  1311
 O        -2.628154        -0.703131         1.690698
 C        -1.739296        -1.333300         0.796111
 C        -2.176428        -2.471935        -0.041570
 C        -1.658043        -1.154183        -0.640937
 O        -0.341673        -1.172223        -1.079537
 C         0.383696        -0.726612         0.077304
 C         0.882086         0.700424         0.071282
 C         1.842016        -0.436471        -0.017971
 C        -0.321865        -1.223780         1.288446
 H        -3.415238        -1.290386         1.713903
 H        -1.503185        -3.378120        -0.078132
 H        -3.275776        -2.575145        -0.042951
 H        -2.303413        -0.578584        -1.203093
 H         0.843545         1.238158        -0.851886
 H         0.852173         1.336162         0.942780
 H         2.431704        -0.406411        -0.935691
 H         2.530147        -0.772908         0.816446
 H         0.217494        -1.990764         1.693802
 H        -0.203234        -0.430452         2.076983
