19
Iteration:  4401
 O        -3.002612        -1.222543         1.523621
 C        -1.760885        -1.406115         0.903489
 C        -1.576182        -2.601092         0.049267
 C        -1.661250        -1.228706        -0.653317
 O        -0.607720        -0.370956        -1.107851
 C         0.284286        -0.340197         0.154994
 C         1.706572         0.303291        -0.079134
 C         1.525121        -1.169299        -0.038096
 C        -0.620260        -0.396863         1.420281
 H        -3.004329        -1.797755         2.287467
 H        -0.587048        -3.017773         0.022365
 H        -2.396570        -3.295028        -0.104469
 H        -2.687540        -0.945073        -1.132730
 H         2.061518         0.740692        -0.999453
 H         2.128574         0.977021         0.729462
 H         1.620734        -1.731061        -0.960696
 H         2.021461        -1.648284         0.807950
 H         0.041136        -0.896769         2.105209
 H        -1.022087         0.592867         1.799622
