19
Iteration:  1928
 O        -3.066663        -0.934595         1.544760
 C        -1.857065        -1.367930         0.931935
 C        -1.804048        -2.656153        -0.083378
 C        -1.754086        -1.193826        -0.575992
 O        -0.500715        -0.635051        -0.950431
 C         0.412483        -0.489024         0.131985
 C         1.419874         0.534084        -0.027945
 C         1.882504        -0.895517        -0.242091
 C        -0.394948        -0.850691         1.374616
 H        -3.314212        -1.565615         2.284056
 H        -0.814260        -3.315682        -0.137124
 H        -2.804333        -3.217960         0.031736
 H        -2.586907        -0.782716        -1.244170
 H         1.279466         1.297351        -0.763437
 H         1.703616         1.278630         0.820732
 H         1.959869        -1.530332        -1.151179
 H         2.488799        -1.214940         0.682494
 H         0.131028        -1.419666         2.231437
 H        -0.636195         0.025335         1.925244
