19
Iteration:  1355
 O        -2.753816        -0.696104         1.549268
 C        -1.746174        -1.298538         0.854315
 C        -2.122179        -2.533362         0.000377
 C        -1.726522        -1.218683        -0.637215
 O        -0.353496        -1.042539        -0.970311
 C         0.396667        -0.625937         0.117188
 C         1.042501         0.752534         0.060736
 C         1.811202        -0.494155        -0.064320
 C        -0.272623        -1.285806         1.249767
 H        -3.056376        -1.335258         2.233954
 H        -1.457011        -3.458942         0.023992
 H        -3.183581        -2.691339        -0.197113
 H        -2.385261        -0.719255        -1.267798
 H         0.891597         1.250024        -0.921433
 H         1.021823         1.451792         0.892075
 H         2.153681        -0.820721        -1.095996
 H         2.641893        -0.876429         0.539980
 H        -0.055900        -2.282256         1.550141
 H        -0.248448        -0.843919         2.311410
