19
Iteration:  1061
 O        -2.876189        -0.800199         1.612550
 C        -1.752594        -1.425910         0.888946
 C        -2.014923        -2.614798         0.001297
 C        -1.760441        -1.191313        -0.601755
 O        -0.462857        -0.985039        -1.129148
 C         0.321514        -0.516385         0.026737
 C         1.333689         0.789937         0.027031
 C         1.819036        -0.597454        -0.035972
 C        -0.394849        -1.146672         1.347740
 H        -2.657723        -1.117171         2.517337
 H        -1.255128        -3.419391        -0.220766
 H        -3.051816        -2.963193        -0.116063
 H        -2.489884        -0.564445        -1.088335
 H         1.412112         1.368443        -0.860751
 H         1.389789         1.212532         0.974175
 H         2.422126        -0.958637        -0.985196
 H         2.247184        -0.958831         0.914736
 H         0.311601        -1.972843         1.571162
 H        -0.336044        -0.229276         2.007745
