19
Iteration:   213
 O        -3.023845        -0.933293         1.591865
 C        -1.789579        -1.388084         0.887009
 C        -1.747719        -2.603137         0.038466
 C        -1.711482        -1.212522        -0.573356
 O        -0.424853        -0.725578        -0.995308
 C         0.322559        -0.488844         0.146757
 C         1.303721         0.607468        -0.167652
 C         1.792010        -0.830889        -0.162525
 C        -0.470884        -0.899632         1.358823
 H        -2.901224        -1.333027         2.469151
 H        -0.773671        -3.140550        -0.010706
 H        -2.600068        -3.231303        -0.003204
 H        -2.536931        -0.745710        -1.100007
 H         1.146833         1.157302        -1.070526
 H         1.777204         1.223349         0.557114
 H         1.858677        -1.386607        -1.044436
 H         2.508776        -1.040720         0.685548
 H         0.092006        -1.712638         1.943048
 H        -0.592801        -0.051720         1.999319
