19
Iteration:   465charge 0 multiplicity 1
 O        -2.980797        -1.034023         1.620454
 C        -1.829882        -1.363786         0.809657
 C        -1.535761        -2.636093         0.104567
 C        -1.677939        -1.289068        -0.643573
 O        -0.589665        -0.465591        -1.008539
 C         0.322918        -0.412830         0.150733
 C         1.462299         0.500996        -0.226798
 C         1.648809        -1.037806        -0.064483
 C        -0.540000        -0.708614         1.338234
 H        -2.767584        -1.295048         2.530492
 H        -0.614450        -3.041557         0.376995
 H        -2.260715        -3.394126        -0.167977
 H        -2.667716        -1.182185        -1.115852
 H         1.108055         0.823648        -1.196564
 H         2.082975         1.229158         0.380213
 H         1.881143        -1.741151        -0.793588
 H         2.162798        -1.158402         0.886967
 H        -0.102680        -1.574346         1.987297
 H        -0.719299         0.112121         1.998760
