19
Iteration:  1109
 O        -2.826022        -0.877060         1.621599
 C        -1.748721        -1.273359         0.889145
 C        -2.051209        -2.495316        -0.076645
 C        -1.775695        -1.139511        -0.628041
 O        -0.338907        -0.962338        -1.084081
 C         0.453842        -0.770221         0.166002
 C         1.036346         0.664198        -0.035206
 C         1.905945        -0.578625        -0.154276
 C        -0.378945        -1.039523         1.438675
 H        -3.008421        -1.546390         2.311743
 H        -1.335443        -3.293463        -0.073649
 H        -3.028946        -2.894527        -0.037094
 H        -2.462032        -0.487012        -1.215598
 H         0.747298         1.191443        -0.982811
 H         1.353296         1.296960         0.886533
 H         2.302585        -0.926399        -1.048368
 H         2.548211        -0.811490         0.715714
 H        -0.142802        -1.957809         1.953390
 H        -0.436160        -0.151378         1.993041
