19
Iteration:  3494
 O        -2.776716        -0.698502         1.578288
 C        -1.712398        -1.445963         0.818316
 C        -2.199432        -2.424020        -0.158170
 C        -1.686667        -1.064662        -0.604405
 O        -0.262948        -1.271120        -0.980796
 C         0.395459        -0.692757         0.132410
 C         0.953297         0.750175         0.086814
 C         1.826709        -0.449136        -0.081212
 C        -0.296427        -1.220759         1.319175
 H        -2.774584        -1.184425         2.461478
 H        -1.728727        -3.381981        -0.184313
 H        -3.225374        -2.594644         0.018753
 H        -2.236370        -0.161686        -1.012005
 H         0.897069         1.333667        -0.784709
 H         0.941445         1.322511         0.998781
 H         2.037481        -0.648523        -1.063456
 H         2.717553        -0.570516         0.557028
 H         0.172955        -2.148345         1.495321
 H        -0.333464        -0.494712         2.097477
