19
Iteration:  1474charge 0 multiplicity 1
 O        -2.815278        -0.808611         1.672519
 C        -1.757592        -1.330931         0.895914
 C        -1.907750        -2.523475        -0.095281
 C        -1.782324        -1.099939        -0.666355
 O        -0.507065        -0.918369        -1.109092
 C         0.473512        -0.704018         0.089287
 C         1.145305         0.698539        -0.029399
 C         1.882258        -0.709401        -0.006186
 C        -0.433283        -1.085041         1.412816
 H        -3.317045        -1.629695         1.738050
 H        -1.176233        -3.323915        -0.328963
 H        -2.959840        -2.988215        -0.138131
 H        -2.598921        -0.748900        -1.148722
 H         1.052362         1.243429        -0.978658
 H         1.331412         1.426411         0.743410
 H         2.332410        -1.306651        -0.857562
 H         2.561752        -0.769266         0.838529
 H         0.217608        -1.667415         2.145932
 H        -0.534967        -0.147637         2.064144
