19
Iteration:   695
 O        -2.893374        -0.943079         1.534616
 C        -1.727535        -1.359516         0.848358
 C        -1.812521        -2.697395         0.073636
 C        -1.783827        -1.295532        -0.564571
 O        -0.567308        -0.563625        -1.024310
 C         0.339153        -0.397143         0.055048
 C         1.375484         0.592366        -0.022713
 C         1.748306        -0.931312        -0.094825
 C        -0.383341        -0.797972         1.361832
 H        -3.261885        -1.749302         1.891669
 H        -1.164124        -3.508087         0.219422
 H        -2.770345        -3.256924        -0.125938
 H        -2.611110        -1.129847        -1.241040
 H         1.447542         1.140682        -1.026162
 H         1.673647         1.179134         0.996210
 H         2.175092        -1.215228        -1.089193
 H         2.252931        -1.371447         0.785369
 H         0.269507        -1.748573         1.586604
 H        -0.522540        -0.173014         2.257349
