19
Iteration:   400charge 0 multiplicity 1
 O        -2.828698        -1.003184         1.757932
 C        -1.828061        -1.285733         0.893963
 C        -1.718585        -2.519135         0.071809
 C        -1.787968        -1.275555        -0.671003
 O        -0.513934        -0.873816        -1.091841
 C         0.372109        -0.625629        -0.007843
 C         1.316837         0.635106         0.045464
 C         1.862229        -0.844451        -0.172841
 C        -0.561258        -0.704215         1.336545
 H        -3.688406        -1.442216         1.508783
 H        -0.830855        -3.025318        -0.062000
 H        -2.651646        -3.046260         0.139006
 H        -2.601470        -0.922626        -1.340459
 H         1.376881         1.364753        -0.741401
 H         1.380394         1.118355         1.065731
 H         2.232215        -0.925585        -1.208528
 H         2.404277        -1.407786         0.493782
 H         0.012185        -1.173948         2.207992
 H        -0.822148         0.325564         1.633129
