19
Iteration:  3866
 O        -2.906591        -1.174425         1.598194
 C        -1.781772        -1.351206         0.900660
 C        -1.765277        -2.549115        -0.033461
 C        -1.747227        -1.134917        -0.678478
 O        -0.474700        -0.622886        -1.075144
 C         0.289829        -0.415237         0.088441
 C         1.555334         0.472998        -0.100198
 C         1.635531        -1.022219         0.023029
 C        -0.496053        -0.607645         1.412387
 H        -3.315528        -1.938621         2.085010
 H        -0.830632        -3.069466        -0.025901
 H        -2.704997        -3.113046        -0.041621
 H        -2.553474        -0.663710        -1.023224
 H         1.682430         0.999431        -1.135977
 H         1.650656         1.135144         0.761785
 H         1.762573        -1.704257        -0.848026
 H         2.198907        -1.454832         0.790947
 H         0.107701        -1.056114         2.189359
 H        -0.990384         0.319246         1.828558
