19
Iteration:  1937charge 0 multiplicity 1
 O        -3.077029        -0.963565         1.578661
 C        -1.837126        -1.441331         0.912392
 C        -1.872020        -2.600964        -0.012727
 C        -1.747803        -1.219105        -0.566600
 O        -0.493116        -0.585780        -1.000827
 C         0.444606        -0.586606         0.093286
 C         1.411271         0.586608        -0.049160
 C         1.943729        -0.876305        -0.173497
 C        -0.424488        -0.800002         1.392319
 H        -3.427650        -1.572537         2.283001
 H        -1.004147        -3.362222        -0.065929
 H        -2.862674        -3.067897        -0.279206
 H        -2.563485        -0.760292        -1.207635
 H         1.342429         1.090871        -1.048413
 H         1.627759         1.087209         0.964669
 H         2.129259        -1.247015        -1.253605
 H         2.585171        -1.338510         0.643882
 H         0.129821        -1.531131         2.055553
 H        -0.666011         0.155867         1.814036
