19
Iteration:  2993charge 0 multiplicity 1
 O        -2.951218        -1.350708         1.607442
 C        -1.729725        -1.296387         0.862992
 C        -1.478727        -2.489176        -0.040586
 C        -1.791978        -1.043660        -0.609887
 O        -0.694686        -0.337081        -1.080040
 C         0.341671        -0.446881         0.008066
 C         1.613210         0.253693        -0.046407
 C         1.574074        -1.243034         0.126410
 C        -0.568206        -0.424632         1.322103
 H        -2.970131        -2.038933         2.275418
 H        -0.437164        -2.718867         0.111059
 H        -2.309910        -3.220748        -0.208282
 H        -2.708751        -1.026345        -1.089472
 H         1.978387         0.313155        -1.146102
 H         1.823096         1.126478         0.529144
 H         1.867997        -1.785167        -0.811279
 H         1.781580        -1.853473         0.970450
 H        -0.049161        -0.684087         2.254309
 H        -0.985180         0.589153         1.503714
