19
Iteration:   887charge 0 multiplicity 1
 O        -2.864370        -0.881145         1.606231
 C        -1.746167        -1.273225         0.834087
 C        -2.013112        -2.579584         0.031582
 C        -1.683478        -1.247631        -0.581543
 O        -0.467975        -0.853789        -1.053310
 C         0.379116        -0.549764         0.070852
 C         1.197888         0.624297         0.066283
 C         1.883600        -0.649031        -0.160329
 C        -0.357460        -1.031828         1.354166
 H        -3.394705        -1.634789         1.926902
 H        -1.292435        -3.393556         0.003265
 H        -3.064213        -2.926656        -0.133163
 H        -2.570693        -0.857321        -1.175240
 H         1.108240         1.267515        -0.729965
 H         1.239283         1.247137         0.917125
 H         2.240112        -0.831050        -1.161348
 H         2.635474        -1.186493         0.544885
 H         0.112474        -1.859880         1.833921
 H        -0.426009        -0.176509         2.047985
