19
Iteration:  2396
 O        -2.899521        -0.772090         1.579746
 C        -1.868540        -1.434268         0.905230
 C        -1.749713        -2.573626        -0.048770
 C        -1.799947        -1.145113        -0.598532
 O        -0.531319        -0.710355        -1.051070
 C         0.378736        -0.618455         0.065548
 C         1.315676         0.604466         0.014105
 C         1.900562        -0.825443        -0.084487
 C        -0.444796        -1.060609         1.396116
 H        -3.424004        -1.329518         2.215235
 H        -0.744855        -3.005854        -0.104368
 H        -2.560075        -3.210254        -0.376984
 H        -2.774097        -0.663104        -1.201645
 H         1.352761         1.026382        -1.035932
 H         1.424958         1.205263         0.848007
 H         2.239536        -1.110125        -1.081722
 H         2.436451        -1.245299         0.717179
 H         0.051133        -1.723420         2.120341
 H        -0.703879        -0.177191         1.952621
