19
Iteration:  1279charge 0 multiplicity 1
 O        -2.691483        -0.676311         1.694918
 C        -1.730587        -1.281119         0.873485
 C        -2.114855        -2.463062        -0.068631
 C        -1.630489        -1.070713        -0.664513
 O        -0.280901        -1.218089        -1.056674
 C         0.378510        -0.722081         0.123548
 C         0.826606         0.695928         0.028995
 C         1.785801        -0.439209        -0.050122
 C        -0.292866        -1.303450         1.287312
 H        -3.493246        -1.182502         1.725361
 H        -1.385475        -3.338622        -0.178384
 H        -3.166045        -2.837668        -0.091498
 H        -2.262969        -0.459244        -1.199819
 H         0.613889         1.252224        -0.875488
 H         0.936760         1.331989         0.919516
 H         2.159258        -0.687141        -1.043889
 H         2.626109        -0.557083         0.754670
 H         0.193033        -2.242028         1.553724
 H        -0.125134        -0.566648         2.168961
