19
Iteration:  1730
 O        -3.042371        -1.124758         1.604038
 C        -1.798891        -1.283870         0.908499
 C        -1.420332        -2.566647         0.009730
 C        -1.753239        -1.221053        -0.631232
 O        -0.551078        -0.489926        -0.992503
 C         0.277227        -0.401288         0.067392
 C         1.536501         0.334536        -0.011124
 C         1.578066        -1.143219        -0.169785
 C        -0.551681        -0.508388         1.361966
 H        -3.054421        -1.823143         2.265134
 H        -0.390401        -2.747506        -0.049006
 H        -2.038472        -3.424465        -0.184332
 H        -2.611880        -1.065382        -1.213125
 H         1.738184         0.934971        -0.873342
 H         1.744791         0.804409         0.983356
 H         1.601119        -1.416441        -1.171093
 H         1.968853        -2.017098         0.403850
 H         0.109164        -0.993250         2.177783
 H        -0.804577         0.478522         1.753880
