19
Iteration:  3999charge 0 multiplicity 1
 O        -3.097293        -1.288325         1.643205
 C        -1.855690        -1.265188         0.805172
 C        -1.520303        -2.487447         0.065705
 C        -1.750928        -1.124190        -0.595050
 O        -0.517597        -0.454566        -1.045492
 C         0.317998        -0.420678         0.113658
 C         1.631865         0.278012        -0.135758
 C         1.712957        -1.148665        -0.044046
 C        -0.608587        -0.434689         1.336027
 H        -3.229828        -2.058505         2.246143
 H        -0.493321        -2.916371         0.014927
 H        -2.288543        -3.255108        -0.011894
 H        -2.585725        -1.020828        -1.397290
 H         1.537066         0.787481        -1.071894
 H         1.998216         0.844069         0.706800
 H         1.785702        -1.616176        -0.994157
 H         2.242535        -1.593222         0.847784
 H        -0.159487        -1.148347         2.010966
 H        -0.914838         0.513390         1.838837
