19
Iteration:  2166charge 0 multiplicity 1
 O        -2.954759        -1.259937         1.642338
 C        -1.728770        -1.324948         0.889626
 C        -1.432645        -2.488820        -0.053109
 C        -1.664347        -1.149576        -0.698349
 O        -0.604862        -0.315401        -0.993635
 C         0.266492        -0.494762         0.179118
 C         1.477607         0.247389        -0.136358
 C         1.569376        -1.255909        -0.027624
 C        -0.612683        -0.384986         1.377304
 H        -3.085535        -2.178350         1.992488
 H        -0.473791        -3.045625        -0.108196
 H        -2.332623        -3.129915        -0.171033
 H        -2.505605        -0.904591        -1.214838
 H         1.546914         0.662900        -1.221380
 H         1.924559         0.966183         0.481885
 H         1.583277        -1.926391        -0.915078
 H         2.028016        -1.577417         0.889111
 H        -0.066204        -0.699815         2.336815
 H        -0.981522         0.674098         1.491002
