19
Iteration:  3247
 O        -2.912454        -0.743627         1.442384
 C        -1.778782        -1.345266         0.873640
 C        -1.937381        -2.637653         0.039469
 C        -1.756971        -1.202076        -0.622102
 O        -0.468395        -0.848280        -1.122104
 C         0.350020        -0.547995         0.128128
 C         1.285120         0.647971         0.132595
 C         1.833563        -0.698486        -0.151826
 C        -0.316867        -1.107569         1.436420
 H        -3.049961        -1.430126         2.181851
 H        -1.098633        -3.273775         0.210037
 H        -2.942910        -3.063375         0.034180
 H        -2.648201        -0.712183        -1.071165
 H         1.064628         1.455243        -0.644253
 H         1.494082         1.115647         1.025497
 H         1.985529        -0.792860        -1.252266
 H         2.421083        -1.251458         0.586709
 H         0.088768        -2.045496         1.743718
 H        -0.175156        -0.427316         2.316716
