19
Iteration:   475charge 0 multiplicity 1
 O        -2.979701        -1.069533         1.600619
 C        -1.834179        -1.337275         0.889242
 C        -1.436672        -2.577764         0.064225
 C        -1.720319        -1.294218        -0.615898
 O        -0.626030        -0.444963        -0.992926
 C         0.302335        -0.439525         0.129638
 C         1.454059         0.452449        -0.246569
 C         1.641780        -1.051916        -0.059933
 C        -0.553224        -0.731919         1.358250
 H        -2.659005        -0.922947         2.492467
 H        -0.417309        -2.887791         0.125056
 H        -2.246124        -3.324930        -0.151328
 H        -2.474785        -1.260869        -1.441957
 H         1.437422         0.882525        -1.214979
 H         1.943163         1.145614         0.488899
 H         1.892378        -1.777369        -0.784685
 H         2.012518        -1.285093         0.917396
 H        -0.048157        -1.377186         2.187581
 H        -0.817495         0.215225         1.732144
