19
Iteration:  4353charge 0 multiplicity 1
 O        -2.950891        -1.319225         1.665956
 C        -1.786482        -1.237010         0.808632
 C        -1.445485        -2.433349        -0.042987
 C        -1.768937        -1.140042        -0.716795
 O        -0.578650        -0.388130        -1.102190
 C         0.266672        -0.439013         0.107894
 C         1.522292         0.199898        -0.081106
 C         1.585780        -1.232469         0.138195
 C        -0.582496        -0.381584         1.379791
 H        -2.858288        -2.260661         1.960987
 H        -0.441290        -2.887076        -0.076454
 H        -2.296081        -3.118602         0.117013
 H        -2.584677        -0.963871        -1.311360
 H         1.616139         0.550255        -1.146928
 H         2.041943         0.941764         0.474995
 H         1.884170        -1.852025        -0.708449
 H         1.827275        -1.628029         1.110027
 H        -0.077547        -0.713336         2.327460
 H        -0.954447         0.627460         1.410810
