19
Iteration:  3394
 O        -2.740959        -0.641732         1.592841
 C        -1.808214        -1.365411         0.785822
 C        -2.030638        -2.603803        -0.040108
 C        -1.643481        -1.168037        -0.611182
 O        -0.353606        -1.085655        -1.071846
 C         0.344316        -0.671859         0.080140
 C         1.077674         0.739077         0.186536
 C         1.834582        -0.562433        -0.150830
 C        -0.386963        -1.177505         1.378081
 H        -3.469548        -1.150500         1.941479
 H        -1.419607        -3.498676        -0.140503
 H        -3.138327        -2.738207        -0.070893
 H        -2.364151        -0.699556        -1.166838
 H         0.986705         1.516370        -0.628324
 H         1.356401         1.221682         1.093601
 H         2.203674        -0.288037        -1.227398
 H         2.336992        -0.905840         0.694846
 H        -0.032123        -2.153078         1.700147
 H        -0.392435        -0.545766         2.225811
