19
Iteration:  4801charge 0 multiplicity 1
 O        -2.911979        -0.651837         1.508539
 C        -1.832253        -1.390610         0.855165
 C        -1.982573        -2.706997        -0.021734
 C        -1.735321        -1.262736        -0.594472
 O        -0.473506        -0.805254        -1.005062
 C         0.403780        -0.574971         0.069123
 C         1.219068         0.636080         0.048054
 C         1.897535        -0.707410        -0.052037
 C        -0.335513        -1.134816         1.312816
 H        -2.634051        -0.710509         2.453909
 H        -1.145825        -3.363000         0.048022
 H        -2.915617        -3.130574        -0.317499
 H        -2.513530        -0.763692        -1.025871
 H         1.139153         1.255381        -0.799895
 H         1.313379         1.396675         0.868028
 H         2.304896        -0.917514        -1.006455
 H         2.436594        -1.067676         0.755701
 H         0.100552        -1.939422         1.812527
 H        -0.348703        -0.341732         2.049092
