19
Iteration:  1631charge 0 multiplicity 1
 O        -2.953339        -1.026352         1.596016
 C        -1.722861        -1.253107         0.865764
 C        -1.863727        -2.527327         0.006677
 C        -1.828548        -1.246646        -0.672206
 O        -0.497330        -0.727170        -1.004810
 C         0.368960        -0.633236         0.106773
 C         1.367026         0.541952         0.015501
 C         1.850818        -0.786100        -0.126897
 C        -0.411807        -0.775725         1.379141
 H        -3.056458        -1.703746         2.265540
 H        -1.152190        -3.319512        -0.038832
 H        -2.824988        -2.803482        -0.088096
 H        -2.546253        -0.832933        -1.495964
 H         1.333068         1.074213        -0.956043
 H         1.354975         1.145349         0.895262
 H         2.216179        -1.211981        -1.088850
 H         2.445146        -1.333541         0.528787
 H        -0.046801        -1.594305         2.087008
 H        -0.442299         0.206704         1.838579
