19
Iteration:  3811
 O        -2.912061        -0.933079         1.608870
 C        -1.846013        -1.290683         0.837024
 C        -1.721013        -2.513274         0.046101
 C        -1.704844        -1.139896        -0.620343
 O        -0.465568        -0.658833        -1.092534
 C         0.375662        -0.667497         0.077096
 C         1.210301         0.550956         0.088441
 C         1.820237        -0.893978        -0.112182
 C        -0.466299        -0.882910         1.314368
 H        -3.219545        -1.812268         1.978605
 H        -0.940514        -3.289025         0.051076
 H        -2.645193        -3.045466        -0.008309
 H        -2.529171        -0.919233        -1.227068
 H         1.179204         0.992143        -0.978832
 H         1.605517         1.084678         0.946289
 H         2.269962        -1.406295        -0.947914
 H         2.259301        -1.255419         0.818529
 H        -0.114195        -1.558747         2.093732
 H        -0.650104         0.143018         1.745388
