19
Iteration:   759
 O        -2.799085        -1.065735         1.658101
 C        -1.754699        -1.345456         0.854964
 C        -1.959321        -2.487560        -0.005300
 C        -1.746394        -1.099287        -0.638232
 O        -0.396628        -0.917213        -1.064776
 C         0.307414        -0.548552         0.095497
 C         1.320354         0.678526        -0.057726
 C         1.784696        -0.806741        -0.076854
 C        -0.492528        -0.810144         1.387303
 H        -3.342351        -1.863169         1.758549
 H        -1.142210        -3.054015        -0.289807
 H        -2.964297        -2.933226         0.173893
 H        -2.655058        -0.940105        -1.258781
 H         1.422031         1.285454        -0.972119
 H         1.560046         1.202802         1.032380
 H         2.015341        -1.062063        -1.103071
 H         2.461380        -1.053687         0.778522
 H         0.071872        -1.577992         2.070165
 H        -0.614502         0.154716         1.903977
