19
Iteration:  3182
 O        -2.938579        -0.992695         1.654994
 C        -1.827819        -1.251782         0.844720
 C        -1.854799        -2.544296        -0.027438
 C        -1.747844        -1.045617        -0.630480
 O        -0.440328        -0.867266        -1.069037
 C         0.340892        -0.545581         0.044120
 C         1.297152         0.632582        -0.034439
 C         1.775993        -0.844952         0.009539
 C        -0.332900        -0.929996         1.336364
 H        -3.178014        -1.691691         2.292671
 H        -0.984859        -3.188277         0.042974
 H        -2.834175        -3.024779        -0.207164
 H        -2.534247        -0.774946        -1.348248
 H         1.299657         1.219250        -0.969650
 H         1.522546         1.228619         0.870714
 H         2.181696        -1.218970        -0.996444
 H         2.273574        -1.254688         0.848355
 H         0.093444        -1.735258         1.872773
 H        -0.397271        -0.036889         2.010401
