19
Iteration:  1539
 O        -2.963414        -0.865301         1.578145
 C        -1.867048        -1.380609         0.838412
 C        -1.931070        -2.561819         0.005844
 C        -1.757544        -1.216571        -0.585150
 O        -0.460727        -0.849439        -1.037469
 C         0.419162        -0.586572         0.044441
 C         1.279980         0.650797         0.064166
 C         1.920856        -0.734186        -0.181129
 C        -0.368250        -0.971649         1.378616
 H        -3.001275        -1.207423         2.507198
 H        -1.118789        -3.298181         0.026566
 H        -3.025439        -2.915189        -0.149707
 H        -2.561656        -0.827210        -1.092074
 H         1.365623         1.386082        -0.746839
 H         1.348683         1.315302         0.928279
 H         2.337112        -0.958079        -1.160911
 H         2.637150        -1.107606         0.609001
 H         0.075549        -1.810998         1.839379
 H        -0.437690        -0.130614         2.102428
