19
Iteration:  1409
 O        -2.832153        -0.717312         1.594923
 C        -1.764168        -1.374239         0.802238
 C        -2.081878        -2.617518        -0.005063
 C        -1.777947        -1.188755        -0.639284
 O        -0.385374        -0.982583        -1.046433
 C         0.420430        -0.605948         0.131701
 C         1.079770         0.703159         0.135879
 C         1.943737        -0.622553        -0.151274
 C        -0.353566        -1.082015         1.301003
 H        -3.019831        -1.314680         2.340631
 H        -1.194977        -3.307256        -0.104709
 H        -3.101628        -3.038614         0.048294
 H        -2.353347        -0.575256        -1.250596
 H         0.969349         1.332939        -0.774103
 H         1.180977         1.173438         1.104436
 H         2.245796        -0.730700        -1.252140
 H         2.716974        -1.016249         0.508002
 H         0.100349        -2.099795         1.808774
 H        -0.466833        -0.365180         2.191537
