19
Iteration:  1657
 O        -2.945247        -0.984719         1.626267
 C        -1.705111        -1.397124         0.903473
 C        -1.757003        -2.541575        -0.063895
 C        -1.751764        -1.090068        -0.562701
 O        -0.460218        -0.757795        -1.102401
 C         0.301973        -0.451763         0.122086
 C         1.360291         0.528443        -0.068947
 C         1.732940        -0.931882        -0.109771
 C        -0.516208        -0.804792         1.378529
 H        -3.000754        -1.536372         2.416393
 H        -0.730979        -2.892859        -0.243729
 H        -2.552859        -3.381564        -0.185542
 H        -2.479854        -0.669229        -1.115170
 H         1.457959         1.140706        -0.941489
 H         1.556706         1.015438         0.915004
 H         1.972762        -1.643569        -0.834226
 H         2.374264        -1.224695         0.776538
 H        -0.017793        -1.402752         2.141153
 H        -0.887629         0.149071         1.801166
