19
Iteration:  1331
 O        -2.731619        -0.654084         1.702485
 C        -1.810725        -1.407581         0.905775
 C        -2.244345        -2.554540        -0.027418
 C        -1.741796        -1.242929        -0.692115
 O        -0.280730        -1.121101        -1.122361
 C         0.444876        -0.623489         0.062701
 C         1.012218         0.806442         0.050954
 C         1.944024        -0.436339        -0.059516
 C        -0.333148        -1.251774         1.283798
 H        -3.419178        -1.237707         2.005858
 H        -1.571729        -3.475203        -0.107284
 H        -3.353909        -2.733346        -0.216321
 H        -2.387726        -0.532028        -1.151811
 H         0.757803         1.460969        -0.705939
 H         0.966280         1.282328         0.987116
 H         2.520938        -0.855963        -0.837699
 H         2.651593        -0.680662         0.783551
 H         0.145107        -2.215817         1.721767
 H        -0.162310        -0.684224         2.246725
