19
Iteration:  2984charge 0 multiplicity 1
 O        -2.928223        -1.289081         1.566203
 C        -1.769708        -1.262038         0.868063
 C        -1.487364        -2.470535        -0.056963
 C        -1.782323        -1.135271        -0.549867
 O        -0.720902        -0.386739        -1.038623
 C         0.278714        -0.413915         0.001129
 C         1.611460         0.297086        -0.023544
 C         1.593080        -1.294704         0.099862
 C        -0.549540        -0.439079         1.319823
 H        -2.675466        -1.984891         2.183047
 H        -0.437523        -2.853186        -0.323799
 H        -2.248112        -3.333480        -0.240848
 H        -2.648324        -0.832223        -1.019389
 H         2.013720         0.485283        -1.147719
 H         2.034326         1.025735         0.629047
 H         2.170199        -1.582670        -0.850180
 H         1.962021        -1.805828         1.019100
 H        -0.212079        -0.789799         2.246510
 H        -1.130404         0.520420         1.463616
