19
Iteration:  1808
 O        -2.926877        -1.262761         1.569701
 C        -1.761265        -1.267073         0.847298
 C        -1.474290        -2.520756        -0.001854
 C        -1.773477        -1.122692        -0.654033
 O        -0.593528        -0.429385        -1.062319
 C         0.278673        -0.448328         0.171108
 C         1.536633         0.312879        -0.119642
 C         1.560295        -1.224521         0.002446
 C        -0.602173        -0.444123         1.433078
 H        -2.932757        -2.039282         2.129563
 H        -0.344426        -2.750603        -0.197187
 H        -2.310746        -3.301877         0.052276
 H        -2.683517        -0.754311        -1.117522
 H         1.533041         0.579149        -1.256616
 H         2.069611         1.100111         0.396377
 H         1.697235        -1.759189        -1.015545
 H         2.085546        -1.536272         0.912874
 H        -0.001996        -1.008212         2.245724
 H        -0.778675         0.533213         1.892958
