19
Iteration:  3159charge 0 multiplicity 1
 O        -2.968382        -1.035270         1.611918
 C        -1.726149        -1.302058         0.928314
 C        -1.877477        -2.512337         0.025473
 C        -1.796757        -1.155875        -0.651492
 O        -0.491014        -0.780377        -1.106612
 C         0.366113        -0.504197         0.049223
 C         1.353489         0.591847        -0.041228
 C         1.850448        -0.908702        -0.002644
 C        -0.420029        -0.822135         1.363156
 H        -3.398750        -1.856336         1.971538
 H        -1.045027        -3.173226        -0.357191
 H        -2.892562        -3.002792         0.048352
 H        -2.653604        -0.638535        -1.180067
 H         1.495266         1.121065        -0.968235
 H         1.598079         1.258635         0.871285
 H         2.321627        -1.104832        -0.986400
 H         2.470805        -1.300951         0.816008
 H         0.129140        -1.569707         1.918670
 H        -0.484248         0.084379         2.032437
