19
Iteration:   653charge 0 multiplicity 1
 O        -2.937671        -1.015394         1.609677
 C        -1.855038        -1.313779         0.817105
 C        -1.543561        -2.628056         0.057803
 C        -1.768457        -1.223623        -0.631308
 O        -0.582270        -0.571443        -1.011371
 C         0.272642        -0.515058         0.086913
 C         1.345848         0.420387         0.044508
 C         1.793379        -0.966514        -0.197773
 C        -0.497247        -0.706028         1.355712
 H        -2.762188        -0.930275         2.550378
 H        -0.524699        -2.955019        -0.119890
 H        -2.373475        -3.356531        -0.216356
 H        -2.630675        -1.002869        -1.244260
 H         1.417952         1.204836        -0.741880
 H         1.608822         0.991451         1.038438
 H         2.008392        -1.296223        -1.267682
 H         2.462240        -1.589476         0.456580
 H        -0.074245        -1.375270         2.139981
 H        -0.605641         0.298881         1.737418
