19
Iteration:  3187charge 0 multiplicity 1
 O        -2.919982        -0.963413         1.650794
 C        -1.793115        -1.304021         0.857083
 C        -1.849366        -2.496706         0.002762
 C        -1.784573        -1.075879        -0.641103
 O        -0.432181        -0.856000        -1.072895
 C         0.342162        -0.544463         0.083305
 C         1.281366         0.664288        -0.045282
 C         1.798983        -0.860525        -0.001448
 C        -0.421619        -0.958058         1.320845
 H        -3.121526        -1.617011         2.330176
 H        -1.063412        -3.270163        -0.116683
 H        -2.763308        -3.033485        -0.212366
 H        -2.440475        -0.756161        -1.449082
 H         1.275744         1.187875        -0.996429
 H         1.603574         1.045164         0.927404
 H         2.221098        -1.134868        -0.927183
 H         2.527480        -1.135429         0.819450
 H         0.119533        -1.802781         1.844691
 H        -0.425259        -0.059580         1.921856
