19
Iteration:  3533charge 0 multiplicity 1
 O        -2.783132        -0.661975         1.633623
 C        -1.788330        -1.299252         0.831309
 C        -2.137586        -2.517249        -0.115627
 C        -1.651463        -1.147454        -0.679590
 O        -0.302673        -1.076330        -0.984217
 C         0.404519        -0.742251         0.114941
 C         0.914103         0.719171         0.060149
 C         1.860619        -0.462447        -0.040782
 C        -0.237895        -1.298948         1.304387
 H        -3.444258        -1.269365         1.926917
 H        -1.441318        -3.364133         0.131902
 H        -3.252418        -2.608364        -0.130724
 H        -2.374235        -0.567919        -1.143042
 H         0.699175         1.174105        -0.913059
 H         1.216078         1.433185         0.855273
 H         2.110465        -0.752517        -1.116439
 H         2.643344        -0.684416         0.750176
 H         0.094977        -2.374290         1.585909
 H        -0.045545        -0.787903         2.267863
