19
Iteration:  1462charge 0 multiplicity 1
 O        -2.803565        -0.842218         1.658585
 C        -1.793738        -1.344818         0.838965
 C        -1.977071        -2.514833        -0.035909
 C        -1.782101        -1.150723        -0.624105
 O        -0.470773        -0.917933        -1.092032
 C         0.345437        -0.649323         0.116563
 C         1.219839         0.643171        -0.058221
 C         1.936863        -0.632822        -0.016284
 C        -0.377485        -1.061027         1.372912
 H        -3.524307        -1.441860         1.874288
 H        -1.009443        -3.101498        -0.109426
 H        -2.972508        -3.029454        -0.158402
 H        -2.432100        -0.591938        -1.183075
 H         1.017057         1.132656        -1.008455
 H         1.350010         1.211112         0.807874
 H         2.515870        -0.942877        -0.941562
 H         2.322046        -0.879594         0.953920
 H        -0.093265        -2.047546         1.775589
 H        -0.450295        -0.217341         2.099580
