19
Iteration:  4202charge 0 multiplicity 1
 O        -2.925943        -0.976229         1.663719
 C        -1.844169        -1.361112         0.841521
 C        -1.850788        -2.579348        -0.061940
 C        -1.808384        -1.113774        -0.625506
 O        -0.443585        -0.784381        -1.101005
 C         0.400948        -0.561223         0.093050
 C         1.346950         0.592360         0.025978
 C         1.844730        -0.954981        -0.015601
 C        -0.484345        -0.731436         1.309352
 H        -2.945064        -1.435824         2.544769
 H        -0.807913        -2.929292        -0.132514
 H        -2.606842        -3.333286        -0.371268
 H        -2.627089        -0.707566        -1.303392
 H         1.551875         1.148927        -0.988169
 H         1.362492         1.081158         0.986238
 H         2.299993        -1.245708        -0.956803
 H         2.188010        -1.356942         0.922890
 H         0.129085        -1.359546         2.015125
 H        -0.706092         0.226792         1.776929
