19
Iteration:  3932charge 0 multiplicity 1
 O        -3.021601        -1.166597         1.483718
 C        -1.725895        -1.318890         0.915928
 C        -1.388359        -2.616482         0.046871
 C        -1.656212        -1.313189        -0.612039
 O        -0.662395        -0.323578        -1.024239
 C         0.269856        -0.332321         0.110320
 C         1.660080         0.278819        -0.012423
 C         1.417356        -1.147741        -0.144240
 C        -0.584105        -0.483271         1.380222
 H        -2.749254        -1.388162         2.368267
 H        -0.478543        -3.205109         0.207890
 H        -2.222700        -3.340744        -0.111117
 H        -2.537632        -1.185086        -1.242463
 H         1.834558         0.760465        -0.956426
 H         1.928125         0.817361         0.971259
 H         1.622003        -1.708257        -1.064630
 H         1.599342        -1.776485         0.695326
 H        -0.018496        -1.063175         2.099364
 H        -0.768073         0.549167         1.761466
