19
Iteration:  3251
 O        -2.910903        -0.749390         1.456124
 C        -1.810847        -1.321071         0.791690
 C        -1.929415        -2.592986         0.067282
 C        -1.775261        -1.184394        -0.596153
 O        -0.477781        -0.873304        -1.138258
 C         0.343933        -0.576146         0.128409
 C         1.290257         0.675141         0.154171
 C         1.800514        -0.703312        -0.159310
 C        -0.262047        -1.113373         1.465651
 H        -3.101881        -1.398156         2.116671
 H        -1.051002        -3.313759         0.134257
 H        -2.882394        -3.172083         0.010766
 H        -2.708123        -0.936870        -1.196635
 H         1.181989         1.346143        -0.726960
 H         1.506238         1.154972         1.178070
 H         2.028293        -0.733190        -1.198644
 H         2.572642        -1.169139         0.602666
 H         0.139833        -2.120094         1.723047
 H        -0.164987        -0.487736         2.342386
