19
Iteration:  3194charge 0 multiplicity 1
 O        -2.894003        -0.909157         1.637301
 C        -1.800795        -1.357883         0.880779
 C        -1.874799        -2.492201        -0.016775
 C        -1.770284        -1.171585        -0.668804
 O        -0.425947        -0.821950        -1.074487
 C         0.378650        -0.559360         0.117735
 C         1.266993         0.622745        -0.010371
 C         1.854231        -0.827389        -0.050817
 C        -0.488524        -0.958889         1.333908
 H        -2.925365        -1.636202         2.330174
 H        -1.014226        -3.058255        -0.247357
 H        -2.885022        -2.897789        -0.030015
 H        -2.555249        -0.704095        -1.271827
 H         1.308424         1.219486        -0.969119
 H         1.529167         1.210416         0.822738
 H         2.195791        -1.216858        -1.055757
 H         2.457390        -0.963055         0.804956
 H         0.008460        -1.770805         1.818046
 H        -0.597583        -0.144805         2.066327
