19
Iteration:  4820
 O        -2.960648        -0.689140         1.601591
 C        -1.884458        -1.305316         0.919431
 C        -1.884171        -2.586617        -0.018186
 C        -1.766173        -1.233465        -0.656618
 O        -0.442930        -0.910578        -1.106947
 C         0.413725        -0.586827         0.072860
 C         1.243293         0.665689         0.015724
 C         1.928841        -0.666044        -0.050153
 C        -0.392127        -1.150100         1.350423
 H        -3.008648        -0.887667         2.581793
 H        -0.962477        -3.152186         0.003775
 H        -2.835594        -3.093709        -0.138928
 H        -2.524919        -0.980762        -1.427339
 H         1.163831         1.195444        -0.899437
 H         1.464099         1.191378         1.024707
 H         2.324149        -1.027392        -0.926395
 H         2.539399        -1.048049         0.770688
 H        -0.033541        -2.170807         1.401327
 H        -0.390712        -0.666300         2.390183
