19
Iteration:  1821
 O        -2.913445        -1.251895         1.566220
 C        -1.697549        -1.245948         0.857990
 C        -1.522525        -2.418494        -0.035675
 C        -1.746881        -1.111900        -0.640542
 O        -0.541232        -0.530078        -0.973865
 C         0.266864        -0.393976         0.135205
 C         1.416605         0.374740        -0.148591
 C         1.530949        -1.223303         0.005157
 C        -0.503964        -0.504558         1.386719
 H        -2.905298        -2.079268         2.115631
 H        -0.574698        -3.145528        -0.051421
 H        -2.435151        -3.111323         0.087643
 H        -2.601918        -0.996870        -1.421359
 H         1.557357         0.825312        -1.157582
 H         1.787294         0.767615         0.828629
 H         1.720058        -1.775763        -0.977348
 H         2.081716        -1.733940         0.792095
 H        -0.041727        -1.021144         2.268167
 H        -1.048633         0.481436         1.617390
