19
Iteration:  4777charge 0 multiplicity 1
 O        -2.771851        -0.751444         1.427462
 C        -1.705266        -1.401383         0.865450
 C        -2.004643        -2.565107         0.049099
 C        -1.724673        -1.262654        -0.696015
 O        -0.447648        -0.821028        -1.107585
 C         0.331813        -0.559733         0.159883
 C         1.162910         0.615090         0.125236
 C         1.781856        -0.752250        -0.097297
 C        -0.352949        -1.051746         1.410385
 H        -2.973418        -1.297381         2.243015
 H        -1.382944        -3.447653         0.139275
 H        -3.067399        -2.739325         0.244899
 H        -2.631243        -0.775656        -1.197898
 H         1.093931         1.355489        -0.644650
 H         1.459128         1.311488         0.987774
 H         2.035409        -1.069193        -1.043786
 H         2.518185        -1.067694         0.651581
 H         0.128698        -1.837218         1.922021
 H        -0.342352        -0.133798         2.068527
