19
Iteration:  3363charge 0 multiplicity 1
 O        -2.855905        -0.813701         1.571631
 C        -1.837658        -1.292016         0.769628
 C        -2.137118        -2.542961         0.007140
 C        -1.671623        -1.076415        -0.622051
 O        -0.340254        -1.001157        -1.032339
 C         0.454240        -0.667669         0.151852
 C         1.010805         0.668255        -0.009195
 C         1.986960        -0.588223        -0.076912
 C        -0.337294        -1.141709         1.410326
 H        -2.996141        -1.575703         2.211139
 H        -1.359983        -3.242182        -0.199208
 H        -3.180323        -2.747559        -0.242708
 H        -2.397849        -0.578938        -1.199959
 H         0.770530         1.264599        -0.899263
 H         1.275189         1.282547         0.782919
 H         2.308394        -0.893108        -1.123253
 H         2.594293        -0.712469         0.761440
 H        -0.024493        -2.179249         1.711979
 H        -0.275021        -0.487692         2.300631
