19
Iteration:  4015charge 0 multiplicity 1
 O        -2.989975        -1.244479         1.587715
 C        -1.778792        -1.241855         0.880114
 C        -1.646143        -2.469492         0.012254
 C        -1.711329        -1.140455        -0.690563
 O        -0.547490        -0.528183        -1.075921
 C         0.318552        -0.490613         0.105152
 C         1.526665         0.439965        -0.095304
 C         1.669286        -1.171562        -0.003482
 C        -0.574881        -0.553515         1.421382
 H        -2.748248        -1.996428         2.213757
 H        -0.740087        -3.055870         0.052364
 H        -2.562569        -3.070288        -0.035014
 H        -2.593706        -0.897417        -1.185503
 H         1.751961         0.836372        -1.096887
 H         1.972052         1.158545         0.693906
 H         1.930724        -1.791445        -0.914967
 H         2.042208        -1.469964         0.947035
 H        -0.098069        -0.919166         2.372663
 H        -0.814424         0.508705         1.507592
