19
Iteration:   609
 O        -3.029337        -1.236834         1.559332
 C        -1.753309        -1.320352         0.887189
 C        -1.621298        -2.611048         0.106150
 C        -1.718032        -1.162179        -0.549751
 O        -0.580408        -0.487657        -0.994007
 C         0.334868        -0.358033         0.074310
 C         1.596542         0.405259        -0.162232
 C         1.636288        -1.072160        -0.103266
 C        -0.559413        -0.531640         1.355415
 H        -2.973245        -2.068592         2.077772
 H        -0.616381        -2.967938         0.043909
 H        -2.567501        -3.124345        -0.086693
 H        -2.595609        -0.929675        -1.151799
 H         1.883698         1.015449        -1.100365
 H         1.975522         1.011503         0.724510
 H         1.678494        -1.662108        -1.110937
 H         2.160877        -1.641527         0.619553
 H         0.084972        -1.061893         2.093119
 H        -1.081709         0.237138         1.855186
