19
Iteration:  2030
 O        -3.035296        -1.051093         1.510781
 C        -1.762079        -1.287685         0.832234
 C        -1.855894        -2.604556         0.052242
 C        -1.742378        -1.228373        -0.605105
 O        -0.554673        -0.558043        -0.989559
 C         0.370090        -0.548814         0.098918
 C         1.413786         0.545190        -0.030042
 C         1.902286        -0.898592        -0.163359
 C        -0.371500        -0.796592         1.433985
 H        -3.073458        -1.747958         2.165866
 H        -1.283814        -3.474189         0.193694
 H        -2.875245        -2.837973         0.000497
 H        -2.631695        -0.957279        -1.251594
 H         1.386879         1.227579        -0.911582
 H         1.663415         0.929725         0.919413
 H         2.147813        -1.278707        -1.197454
 H         2.270294        -1.469928         0.641284
 H         0.098479        -1.580027         1.989539
 H        -0.528189         0.182729         1.982876
