19
Iteration:   150charge 0 multiplicity 1
 O        -2.956876        -0.973015         1.664651
 C        -1.725079        -1.307633         0.902831
 C        -1.572294        -2.683079         0.025918
 C        -1.753390        -1.305590        -0.577528
 O        -0.642787        -0.607053        -1.159652
 C         0.311118        -0.485069        -0.036256
 C         1.401840         0.542969         0.066638
 C         1.714633        -0.982712        -0.111086
 C        -0.441369        -0.634151         1.367795
 H        -3.359321        -1.828447         1.766694
 H        -0.615063        -3.087986         0.180367
 H        -2.288076        -3.390577        -0.093147
 H        -2.720514        -1.074850        -1.015203
 H         1.718460         1.072672        -0.821787
 H         1.430592         1.000792         1.039356
 H         2.063066        -1.265829        -1.054363
 H         2.003621        -1.707147         0.675274
 H         0.161092        -1.093243         2.078116
 H        -0.840849         0.334302         1.803107
