19
Iteration:  1162charge 0 multiplicity 1
 O        -2.759415        -0.722061         1.616443
 C        -1.750882        -1.366874         0.829502
 C        -2.118454        -2.595256         0.079386
 C        -1.744734        -1.207822        -0.679955
 O        -0.391839        -1.038640        -1.090201
 C         0.397915        -0.533801         0.175724
 C         1.138037         0.772875         0.045316
 C         1.841996        -0.558095        -0.083038
 C        -0.315235        -1.209663         1.285178
 H        -3.393149        -1.341189         2.010767
 H        -1.382857        -3.361847         0.081773
 H        -3.104635        -2.876605        -0.143984
 H        -2.334961        -0.558641        -1.290889
 H         0.909330         1.286274        -0.920698
 H         1.242617         1.426800         0.991487
 H         2.152126        -0.772981        -1.076367
 H         2.561994        -1.001421         0.681359
 H         0.139178        -2.216893         1.558372
 H        -0.553472        -0.622972         2.164929
