19
Iteration:  4694charge 0 multiplicity 1
 O        -2.757803        -0.818665         1.611749
 C        -1.701695        -1.437386         0.876632
 C        -2.061631        -2.521242        -0.082070
 C        -1.724465        -1.146230        -0.679396
 O        -0.397183        -0.979656        -1.099708
 C         0.350681        -0.491391         0.155649
 C         1.228770         0.655988        -0.053871
 C         1.770699        -0.750762         0.020192
 C        -0.410682        -0.963842         1.397444
 H        -3.294363        -1.568332         1.916695
 H        -1.318389        -3.230648        -0.339310
 H        -3.094666        -2.861902        -0.178018
 H        -2.404409        -0.433694        -0.940714
 H         1.147880         0.958153        -1.030887
 H         1.348531         1.308660         0.839892
 H         2.081388        -1.237724        -0.852244
 H         2.242631        -1.068918         0.936893
 H         0.226143        -1.689501         2.112750
 H        -0.675471        -0.139999         2.026075
