19
Iteration:  4640
 O        -2.958687        -0.837166         1.532021
 C        -1.779701        -1.273600         0.846941
 C        -1.942175        -2.575911         0.130880
 C        -1.689301        -1.138725        -0.662365
 O        -0.356945        -0.779900        -1.170940
 C         0.454074        -0.657174         0.113993
 C         1.176544         0.596502         0.070698
 C         1.767753        -0.776854        -0.131380
 C        -0.404046        -1.038642         1.362909
 H        -2.796133        -1.185995         2.402888
 H        -1.285436        -3.390465         0.357251
 H        -2.920539        -2.994256         0.265604
 H        -2.412943        -0.910191        -1.333819
 H         1.054144         1.330311        -0.641724
 H         1.470473         1.057172         1.006997
 H         1.967769        -1.009692        -1.114503
 H         2.386281        -0.922731         0.751102
 H         0.000724        -1.967175         1.893183
 H        -0.221711        -0.351115         2.143362
