19
Iteration:  1080
 O        -2.824617        -0.882014         1.682376
 C        -1.805639        -1.305081         0.871165
 C        -2.002180        -2.501296        -0.086936
 C        -1.759596        -1.160076        -0.644892
 O        -0.338680        -1.011828        -1.073808
 C         0.367312        -0.606283         0.084889
 C         1.101240         0.737310         0.030425
 C         1.844280        -0.695200        -0.067785
 C        -0.360778        -1.027603         1.307503
 H        -2.616068        -1.057035         2.637584
 H        -1.142149        -3.267519        -0.042911
 H        -2.930441        -3.061916        -0.160092
 H        -2.537620        -0.598103        -1.273364
 H         1.094657         1.268881        -0.887527
 H         1.204700         1.405269         0.863549
 H         2.131146        -0.922901        -1.062998
 H         2.423848        -1.179844         0.695271
 H         0.025657        -1.983602         1.752049
 H        -0.463739        -0.202410         2.108101
