19
Iteration:   612
 O        -3.041421        -1.238882         1.562380
 C        -1.762611        -1.303775         0.897355
 C        -1.628558        -2.619652         0.129568
 C        -1.715262        -1.145427        -0.553141
 O        -0.565120        -0.498065        -1.012697
 C         0.354667        -0.358912         0.092946
 C         1.570421         0.403139        -0.145102
 C         1.658080        -1.060300        -0.138434
 C        -0.564997        -0.554252         1.346503
 H        -2.834623        -2.021683         2.145005
 H        -0.592351        -2.975334         0.028935
 H        -2.600431        -3.158865        -0.185141
 H        -2.563183        -0.898264        -1.175140
 H         1.789981         0.906853        -1.014373
 H         1.947124         0.971641         0.706193
 H         1.678423        -1.566626        -1.137499
 H         2.193651        -1.680497         0.649933
 H         0.022399        -1.012904         2.086488
 H        -1.096174         0.310673         1.847393
