19
Iteration:    75charge 0 multiplicity 1
 O        -3.028787        -1.427074         1.472682
 C        -1.743175        -1.264893         0.969741
 C        -1.419137        -2.545144         0.082455
 C        -1.776179        -1.161944        -0.451440
 O        -0.657506        -0.537973        -1.032761
 C         0.309338        -0.367068         0.076200
 C         1.643993         0.344081        -0.207450
 C         1.562103        -1.143413        -0.110384
 C        -0.601683        -0.283141         1.383651
 H        -2.907269        -1.817946         2.385110
 H        -0.392271        -2.752734         0.014248
 H        -2.030027        -3.306170        -0.006679
 H        -2.708057        -0.827999        -0.897862
 H         1.886151         0.796570        -1.156200
 H         2.082662         0.717106         0.707669
 H         1.580283        -1.703143        -1.043259
 H         2.089233        -1.576510         0.719124
 H        -0.156774        -0.463516         2.299677
 H        -0.990091         0.836414         1.324825
