19
Iteration:  4893charge 0 multiplicity 1
 O        -2.832691        -0.881072         1.763509
 C        -1.878830        -1.382456         0.886421
 C        -2.043452        -2.477262        -0.082410
 C        -1.750912        -1.103204        -0.718654
 O        -0.333991        -1.080018        -0.966686
 C         0.415719        -0.563752         0.118361
 C         1.256885         0.705403        -0.089582
 C         1.864092        -0.671520        -0.046641
 C        -0.416136        -1.001975         1.329429
 H        -3.705562        -0.925285         1.326881
 H        -1.249016        -3.208193        -0.350344
 H        -3.105476        -2.808157        -0.247271
 H        -2.531119        -0.597720        -1.405665
 H         1.083464         1.102656        -1.044841
 H         1.382549         1.508920         0.663064
 H         2.317695        -1.176957        -0.884066
 H         2.634450        -1.067945         0.753205
 H         0.130247        -1.860640         1.868014
 H        -0.460936        -0.254645         2.123609
