19
Iteration:  1802
 O        -2.975739        -1.260764         1.582586
 C        -1.810899        -1.289789         0.882085
 C        -1.455971        -2.547130         0.010527
 C        -1.743607        -1.142855        -0.619488
 O        -0.635474        -0.372814        -1.073259
 C         0.299140        -0.458941         0.132750
 C         1.644891         0.269227        -0.169011
 C         1.595045        -1.147901         0.011600
 C        -0.599281        -0.447470         1.408445
 H        -2.933566        -2.027050         2.184031
 H        -0.435634        -2.680798        -0.280871
 H        -2.124962        -3.357503        -0.136837
 H        -2.742280        -0.790736        -1.045765
 H         1.441291         0.572206        -1.134559
 H         2.123905         1.021048         0.488733
 H         1.690645        -1.842805        -0.779609
 H         1.912891        -1.682164         0.914932
 H        -0.170922        -1.008366         2.189001
 H        -0.951871         0.527925         1.869084
