19
Iteration:  1379charge 0 multiplicity 1
 O        -2.838568        -0.670805         1.516980
 C        -1.723523        -1.363704         0.900798
 C        -2.019938        -2.557810        -0.052461
 C        -1.663124        -1.134398        -0.610477
 O        -0.382253        -1.009350        -1.113433
 C         0.375461        -0.646406         0.103519
 C         0.960431         0.647335         0.098865
 C         1.819762        -0.575818        -0.155256
 C        -0.273327        -1.229095         1.427311
 H        -2.875808        -0.921581         2.480751
 H        -1.217399        -3.227305        -0.124182
 H        -2.987267        -3.031588        -0.018046
 H        -2.435008        -0.464462        -1.101461
 H         0.686917         1.374221        -0.743634
 H         1.314525         1.187921         1.037202
 H         2.412023        -0.822065        -1.091146
 H         2.511131        -0.735758         0.643879
 H         0.003651        -2.085982         1.845812
 H        -0.395247        -0.669832         2.357968
