19
Iteration:  1406
 O        -2.826834        -0.708975         1.583433
 C        -1.798790        -1.379579         0.805910
 C        -2.071824        -2.610426        -0.014244
 C        -1.747643        -1.182839        -0.635210
 O        -0.403264        -0.983755        -1.027615
 C         0.454531        -0.620652         0.124525
 C         1.056957         0.700742         0.129747
 C         1.937490        -0.623166        -0.141662
 C        -0.332362        -1.077019         1.293232
 H        -2.996830        -1.275621         2.386925
 H        -1.175017        -3.312750        -0.202435
 H        -3.076086        -3.068995         0.070098
 H        -2.480187        -0.584488        -1.223386
 H         0.922098         1.314670        -0.718057
 H         1.135413         1.170802         1.067224
 H         2.200935        -0.689844        -1.178571
 H         2.770342        -1.065535         0.434801
 H         0.032377        -2.059731         1.860990
 H        -0.437769        -0.423183         2.159954
