19
Iteration:  2324
 O        -2.960962        -0.851741         1.688508
 C        -1.838722        -1.393723         0.895796
 C        -1.770991        -2.532847        -0.193593
 C        -1.813278        -1.177634        -0.656971
 O        -0.515286        -0.729023        -0.975459
 C         0.409525        -0.592857         0.094040
 C         1.307489         0.583471        -0.008805
 C         1.826276        -0.918218        -0.081176
 C        -0.404667        -0.883018         1.365764
 H        -3.172233        -1.582545         2.314565
 H        -0.753533        -3.021335        -0.278626
 H        -2.686357        -3.191445        -0.323797
 H        -2.488415        -0.996988        -1.453360
 H         1.246362         1.216997        -1.014032
 H         1.685610         0.962806         0.919489
 H         2.380751        -1.228062        -1.069317
 H         2.502668        -1.268397         0.794144
 H         0.144314        -1.348875         2.258188
 H        -0.645692         0.138278         1.769061
