19
Iteration:  1400charge 0 multiplicity 1
 O        -2.809195        -0.704515         1.548160
 C        -1.855561        -1.360528         0.848672
 C        -2.024630        -2.584576        -0.045306
 C        -1.703533        -1.169971        -0.634197
 O        -0.434051        -0.987485        -0.996685
 C         0.494662        -0.686675         0.094414
 C         1.040446         0.684236         0.116342
 C         1.906560        -0.601497        -0.114380
 C        -0.308346        -1.112526         1.315665
 H        -2.927050        -1.128519         2.420695
 H        -1.276310        -3.284180        -0.324733
 H        -3.003586        -3.045909        -0.020264
 H        -2.600054        -0.737993        -1.040844
 H         0.813022         1.391721        -0.754584
 H         1.052195         1.243458         1.099468
 H         2.070051        -0.613930        -1.256616
 H         2.700655        -1.076256         0.432460
 H        -0.004437        -2.025095         1.849605
 H        -0.331072        -0.269617         2.095946
