19
Iteration:  2173charge 0 multiplicity 1
 O        -2.976761        -1.249277         1.649035
 C        -1.769633        -1.353290         0.849983
 C        -1.437413        -2.525898        -0.081565
 C        -1.709080        -1.160271        -0.690052
 O        -0.654220        -0.318545        -0.968441
 C         0.329872        -0.435254         0.163666
 C         1.572871         0.281466        -0.183185
 C         1.556665        -1.233851         0.004228
 C        -0.560332        -0.387110         1.399190
 H        -3.169411        -2.134468         1.992261
 H        -0.531165        -3.121391         0.158137
 H        -2.265383        -3.290820        -0.134839
 H        -2.594545        -0.993749        -1.365772
 H         1.712717         0.505252        -1.280178
 H         2.011473         0.899864         0.676818
 H         1.529081        -1.707680        -0.998535
 H         1.962658        -1.702002         1.005039
 H        -0.060219        -0.773609         2.229227
 H        -1.111010         0.594645         1.586766
