19
Iteration:  3374
 O        -2.801908        -0.746303         1.587925
 C        -1.790564        -1.303425         0.840988
 C        -2.150183        -2.493147        -0.019867
 C        -1.743000        -1.246590        -0.700091
 O        -0.287925        -0.968773        -1.056895
 C         0.463125        -0.682547         0.215770
 C         0.987131         0.670140         0.080468
 C         1.926406        -0.557871        -0.124217
 C        -0.296924        -1.146005         1.359864
 H        -3.284264        -1.395136         2.082665
 H        -1.412961        -3.257546        -0.146648
 H        -3.102534        -2.794113        -0.437684
 H        -2.475367        -0.687386        -1.225556
 H         0.803415         1.311553        -0.777030
 H         1.045721         1.102015         1.022512
 H         1.982344        -1.054622        -1.122880
 H         2.640526        -0.870561         0.605620
 H         0.197793        -2.018452         1.849924
 H        -0.506042        -0.374859         2.120279
