19
Iteration:   169charge 0 multiplicity 1
 O        -2.907948        -1.038441         1.565836
 C        -1.783554        -1.370582         0.901428
 C        -1.696873        -2.596604         0.231985
 C        -1.749058        -1.233551        -0.574193
 O        -0.569936        -0.656880        -1.058513
 C         0.337174        -0.505872         0.008177
 C         1.406988         0.523638         0.089619
 C         1.784122        -0.880470        -0.216577
 C        -0.515483        -0.685897         1.232156
 H        -3.522199        -1.740805         1.808682
 H        -0.833180        -3.323902         0.048672
 H        -2.644539        -3.156163         0.177162
 H        -2.609830        -1.064406        -1.193191
 H         1.444514         1.297680        -0.635302
 H         1.719837         0.730191         1.101905
 H         2.065826        -1.071703        -1.313775
 H         2.427896        -1.287347         0.538188
 H         0.122269        -1.161840         2.056455
 H        -0.737702         0.305189         1.524222
