19
Iteration:  3414charge 0 multiplicity 1
 O        -2.740697        -0.578442         1.576458
 C        -1.762806        -1.371815         0.865574
 C        -2.101444        -2.535343        -0.022029
 C        -1.754181        -1.283158        -0.705958
 O        -0.409214        -1.081207        -1.039630
 C         0.349719        -0.586982         0.062772
 C         1.081263         0.751234         0.215374
 C         1.910557        -0.541964        -0.046160
 C        -0.278515        -1.261481         1.247897
 H        -3.457039        -1.275891         1.679004
 H        -1.192880        -3.152292         0.088473
 H        -3.030367        -3.151072        -0.036030
 H        -2.429856        -0.679239        -1.225702
 H         0.845783         1.554345        -0.538234
 H         0.914423         1.173577         1.208691
 H         1.930132        -0.790338        -1.173947
 H         2.586295        -0.893974         0.690582
 H         0.180559        -2.206216         1.502391
 H        -0.083922        -0.662906         2.106320
