19
Iteration:  4271
 O        -3.117379        -0.956790         1.494378
 C        -1.883327        -1.308542         0.874741
 C        -1.528448        -2.589378         0.047128
 C        -1.687734        -1.285389        -0.625241
 O        -0.577597        -0.458992        -1.026578
 C         0.306771        -0.506382         0.130401
 C         1.469806         0.494419        -0.037856
 C         1.794979        -1.100344        -0.165175
 C        -0.486957        -0.738187         1.470233
 H        -3.232514        -1.509993         2.312613
 H        -0.503779        -2.943642         0.090235
 H        -2.239163        -3.367393        -0.106333
 H        -2.457191        -1.138742        -1.339445
 H         1.304234         1.038551        -0.918052
 H         2.007221         0.994188         0.833388
 H         1.913218        -1.476839        -1.165698
 H         2.270947        -1.695648         0.609046
 H        -0.076223        -1.556363         2.010670
 H        -0.512217         0.135271         2.156144
