19
Iteration:  1734charge 0 multiplicity 1
 O        -3.021801        -1.131821         1.589583
 C        -1.729736        -1.305596         0.903963
 C        -1.420212        -2.567638         0.032649
 C        -1.742459        -1.190498        -0.660443
 O        -0.560915        -0.507513        -0.989054
 C         0.254198        -0.406313         0.110053
 C         1.530242         0.316522        -0.024068
 C         1.528893        -1.154916        -0.162408
 C        -0.588620        -0.477427         1.352466
 H        -3.073377        -1.787122         2.335859
 H        -0.271835        -2.582454        -0.019568
 H        -2.050739        -3.517577        -0.147904
 H        -2.612356        -0.945398        -1.282516
 H         1.912207         1.020458        -0.824518
 H         1.827950         0.727282         0.933295
 H         1.540162        -1.337128        -1.283570
 H         1.996191        -1.956635         0.406167
 H         0.058351        -1.026552         2.058809
 H        -0.813376         0.478593         1.891981
