19
Iteration:  1404charge 0 multiplicity 1
 O        -2.821527        -0.706949         1.574806
 C        -1.823075        -1.377524         0.815985
 C        -2.057904        -2.606587        -0.023230
 C        -1.725298        -1.179574        -0.634564
 O        -0.415424        -0.984891        -1.015183
 C         0.475174        -0.636494         0.114918
 C         1.047132         0.694259         0.122565
 C         1.929363        -0.619713        -0.134132
 C        -0.318867        -1.087219         1.300470
 H        -2.972545        -1.223465         2.384020
 H        -1.233513        -3.277125        -0.250901
 H        -3.036403        -3.069553         0.063837
 H        -2.575016        -0.605168        -1.191215
 H         0.884113         1.332535        -0.712707
 H         1.110302         1.204930         1.097160
 H         2.154323        -0.661448        -1.147110
 H         2.772947        -1.082983         0.409312
 H        -0.029979        -1.953067         1.830284
 H        -0.405787        -0.436177         2.117880
