19
Iteration:  4480
 O        -2.999675        -0.960171         1.495819
 C        -1.789189        -1.305634         0.863700
 C        -1.781119        -2.654095         0.092483
 C        -1.700779        -1.240988        -0.615476
 O        -0.511683        -0.541648        -1.049832
 C         0.325287        -0.463401         0.136180
 C         1.461104         0.575555        -0.026298
 C         1.755464        -1.006657        -0.101338
 C        -0.454556        -0.846852         1.385485
 H        -3.197417        -1.654040         2.116443
 H        -0.875796        -3.295042         0.157647
 H        -2.735599        -3.191499        -0.061964
 H        -2.466471        -0.935687        -1.271208
 H         1.461759         1.090663        -0.988581
 H         1.728967         1.127321         0.791515
 H         1.913007        -1.490884        -1.106939
 H         2.279340        -1.670128         0.666040
 H         0.037124        -1.369928         2.145181
 H        -0.572625         0.141245         1.898021
