19
Iteration:  4908charge 0 multiplicity 1
 O        -2.838582        -0.940441         1.764324
 C        -1.742534        -1.180082         0.783954
 C        -2.048110        -2.463454        -0.071694
 C        -1.663337        -1.178233        -0.667770
 O        -0.345345        -1.001059        -1.076502
 C         0.320663        -0.563422         0.152058
 C         1.158236         0.666474        -0.140415
 C         1.844060        -0.709861         0.010103
 C        -0.383727        -1.061300         1.435644
 H        -3.663215        -0.826750         1.206899
 H        -1.406048        -3.309048        -0.010635
 H        -3.062465        -2.722979        -0.009425
 H        -2.274721        -0.645175        -1.284762
 H         1.165951         1.090095        -1.184119
 H         1.356497         1.256959         0.726402
 H         2.243777        -1.204874        -0.902584
 H         2.371365        -0.916599         0.847470
 H        -0.031923        -2.061096         1.593463
 H        -0.380637        -0.317698         2.299430
