19
Iteration:  4140charge 0 multiplicity 1
 O        -2.928937        -0.850646         1.504681
 C        -1.788670        -1.442368         0.933202
 C        -1.829851        -2.598652        -0.048892
 C        -1.755937        -1.214522        -0.586475
 O        -0.522111        -0.676630        -1.081235
 C         0.382428        -0.580390         0.124669
 C         1.389340         0.558561        -0.000419
 C         1.863249        -0.822043        -0.102991
 C        -0.459229        -0.855685         1.451386
 H        -3.438333        -1.481795         2.092262
 H        -1.074376        -3.340448        -0.028892
 H        -2.797144        -3.101446        -0.157286
 H        -2.545861        -0.908948        -1.194118
 H         1.443730         1.124105        -1.031924
 H         1.727085         1.118541         0.807724
 H         2.042235        -1.293511        -1.119762
 H         2.347243        -1.287094         0.730919
 H        -0.081218        -1.568599         2.169264
 H        -0.831100         0.050510         2.009821
