19
Iteration:  3777charge 0 multiplicity 1
 O        -2.978552        -0.852952         1.456553
 C        -1.842684        -1.377002         0.820440
 C        -1.873424        -2.639231        -0.006940
 C        -1.791760        -1.258786        -0.609909
 O        -0.483914        -0.808912        -0.961404
 C         0.347835        -0.477021         0.131164
 C         1.412088         0.640942         0.114895
 C         1.846217        -0.760696        -0.228355
 C        -0.381739        -0.956630         1.409253
 H        -2.960805        -1.272199         2.378246
 H        -0.938388        -3.231058        -0.154805
 H        -2.843249        -3.074097         0.177020
 H        -2.634780        -0.747228        -1.255685
 H         1.476163         1.343744        -0.755841
 H         1.951901         1.195282         0.954017
 H         1.967832        -0.888751        -1.239964
 H         2.303517        -1.389369         0.613971
 H         0.022254        -1.858567         1.925613
 H        -0.360472        -0.139543         2.164726
