19
Iteration:  2441
 O        -2.958385        -0.957538         1.540560
 C        -1.779616        -1.352519         0.899321
 C        -1.971867        -2.577255         0.045330
 C        -1.680102        -1.188583        -0.633986
 O        -0.447802        -0.744192        -1.080226
 C         0.357877        -0.496943         0.112932
 C         1.420379         0.629382         0.060481
 C         1.771170        -0.818103        -0.159384
 C        -0.409061        -0.911368         1.369954
 H        -3.012794        -1.417092         2.423093
 H        -1.064550        -3.246723         0.006118
 H        -2.907052        -3.060367        -0.146691
 H        -2.649898        -0.863553        -1.283556
 H         1.404051         1.285472        -0.817187
 H         1.586637         1.097935         1.026372
 H         2.015478        -1.147775        -1.159561
 H         2.140309        -1.576712         0.587543
 H         0.160549        -1.731727         1.900117
 H        -0.489709        -0.115360         2.059864
