19
Iteration:  4818charge 0 multiplicity 1
 O        -2.962600        -0.680233         1.601481
 C        -1.890657        -1.322925         0.924978
 C        -1.888249        -2.585219        -0.040441
 C        -1.765306        -1.247689        -0.645211
 O        -0.447654        -0.902090        -1.099802
 C         0.401918        -0.590582         0.080646
 C         1.242297         0.681780         0.030437
 C         1.936914        -0.664969        -0.051316
 C        -0.381355        -1.142445         1.341521
 H        -3.010213        -0.811990         2.567957
 H        -0.932251        -3.157394         0.045691
 H        -2.861846        -3.130355        -0.128760
 H        -2.575395        -0.991779        -1.464098
 H         1.168834         1.113153        -0.982703
 H         1.468639         1.136939         1.010306
 H         2.375316        -1.065834        -0.987098
 H         2.609547        -1.073218         0.813382
 H         0.026592        -2.219796         1.345848
 H        -0.387511        -0.604250         2.363182
