19
Iteration:  2103
 O        -2.931488        -1.135208         1.582902
 C        -1.774675        -1.416932         0.832095
 C        -1.600749        -2.643122         0.086491
 C        -1.700621        -1.123432        -0.619150
 O        -0.648773        -0.358954        -1.045116
 C         0.291006        -0.429157         0.020114
 C         1.551175         0.434830         0.032866
 C         1.659989        -1.122786        -0.065028
 C        -0.540029        -0.645592         1.275077
 H        -2.920405        -1.586761         2.448958
 H        -0.724881        -3.226539         0.293814
 H        -2.443135        -3.271200        -0.121879
 H        -2.586512        -0.923942        -1.173672
 H         1.786494         0.985462        -0.884462
 H         1.793757         0.792757         0.933214
 H         1.830268        -1.731859        -0.972185
 H         1.883370        -1.524934         0.835332
 H         0.085791        -1.137388         2.079468
 H        -0.871546         0.303948         1.503199
