19
Iteration:  3003
 O        -2.976813        -1.361647         1.644516
 C        -1.762220        -1.338391         0.899847
 C        -1.436662        -2.453619        -0.012592
 C        -1.797375        -1.081498        -0.656015
 O        -0.599162        -0.292834        -1.096183
 C         0.250922        -0.414725         0.078948
 C         1.618117         0.241442        -0.127475
 C         1.559728        -1.269751         0.115048
 C        -0.563473        -0.405646         1.294440
 H        -2.937673        -2.117673         2.217877
 H        -0.537623        -3.034216        -0.058090
 H        -2.252583        -3.192793         0.009001
 H        -2.623007        -0.899489        -1.299203
 H         1.853380         0.717162        -1.122581
 H         1.860707         0.858247         0.727681
 H         1.728724        -1.954415        -0.721512
 H         1.603251        -1.641536         1.091745
 H         0.122156        -0.807016         2.077601
 H        -0.848873         0.626842         1.497487
