19
Iteration:  4287charge 0 multiplicity 1
 O        -3.012866        -1.031458         1.458588
 C        -1.792610        -1.300023         0.834937
 C        -1.489545        -2.598578         0.092214
 C        -1.723228        -1.144875        -0.630016
 O        -0.576648        -0.448198        -0.978406
 C         0.304579        -0.527184         0.121289
 C         1.440555         0.341840         0.008382
 C         1.655245        -1.057437        -0.143390
 C        -0.527916        -0.719824         1.356428
 H        -2.898982        -1.331860         2.370024
 H        -0.467182        -2.929426         0.368877
 H        -2.247442        -3.418221        -0.052413
 H        -2.696330        -1.027595        -1.216320
 H         1.661535         0.991669        -0.907371
 H         1.621207         0.838271         0.897142
 H         1.843164        -1.538391        -1.136070
 H         2.232845        -1.535912         0.682501
 H         0.020622        -1.157093         2.245916
 H        -0.862722         0.271510         1.681811
