19
Iteration:  3882charge 0 multiplicity 1
 O        -3.002874        -1.184844         1.594264
 C        -1.729841        -1.268047         0.843219
 C        -1.599373        -2.497372        -0.035023
 C        -1.742009        -1.135627        -0.606791
 O        -0.563181        -0.580968        -1.033379
 C         0.327855        -0.473796         0.157492
 C         1.417106         0.426266        -0.081730
 C         1.711259        -1.127342        -0.025490
 C        -0.536774        -0.501900         1.380172
 H        -2.745262        -2.032113         2.069380
 H        -0.765596        -3.167789        -0.353482
 H        -2.541746        -3.045032        -0.028950
 H        -2.632819        -1.015928        -1.393679
 H         1.436549         0.835845        -1.052169
 H         2.008912         0.886840         0.695038
 H         1.960738        -1.545017        -0.992711
 H         2.196356        -1.661488         0.884678
 H        -0.096289        -1.149021         2.183991
 H        -0.761797         0.495676         1.736256
