19
Iteration:  2657charge 0 multiplicity 1
 O        -3.033563        -1.322822         1.576589
 C        -1.772834        -1.315407         0.981507
 C        -1.527107        -2.429114        -0.003957
 C        -1.745818        -1.140664        -0.627587
 O        -0.541256        -0.455070        -1.058568
 C         0.336325        -0.366743         0.066977
 C         1.634464         0.317383        -0.127812
 C         1.567278        -1.192048        -0.021628
 C        -0.619105        -0.483021         1.416542
 H        -3.038257        -2.000564         2.248042
 H        -0.522813        -2.755620        -0.306795
 H        -2.265721        -3.206833        -0.016793
 H        -2.671338        -0.758350        -1.313662
 H         1.765835         0.754512        -1.179983
 H         1.979411         0.865735         0.699311
 H         1.554335        -1.765310        -0.939020
 H         1.977988        -1.885251         0.642096
 H         0.063450        -0.688419         2.247143
 H        -0.942407         0.612727         1.726458
