19
Iteration:  1860charge 0 multiplicity 1
 O        -2.975168        -1.054974         1.646414
 C        -1.836498        -1.376691         0.823266
 C        -1.679567        -2.596184         0.017325
 C        -1.843120        -1.236673        -0.626394
 O        -0.678395        -0.493098        -1.039587
 C         0.364929        -0.447968         0.026885
 C         1.634938         0.440185         0.025321
 C         1.891878        -1.016400        -0.052076
 C        -0.567072        -0.693215         1.301349
 H        -3.085068        -1.717368         2.342634
 H        -0.688363        -3.050451        -0.021875
 H        -2.520522        -3.284079         0.004738
 H        -2.585929        -1.045541        -1.339201
 H         1.927351         1.143311        -0.845778
 H         1.689526         1.070741         0.884533
 H         2.097211        -1.285741        -1.149142
 H         2.178461        -1.658656         0.764943
 H        -0.002820        -1.142892         2.160810
 H        -0.959101         0.276634         1.601758
