19
Iteration:  1625
 O        -2.967974        -1.013766         1.595344
 C        -1.772701        -1.263035         0.901535
 C        -1.903140        -2.510789         0.039143
 C        -1.728623        -1.243009        -0.682606
 O        -0.512431        -0.715818        -1.044967
 C         0.383108        -0.585450         0.056466
 C         1.356592         0.542667         0.011294
 C         1.900098        -0.794656        -0.147224
 C        -0.399507        -0.826580         1.392092
 H        -3.027059        -1.766684         2.214571
 H        -1.234181        -3.402598        -0.091919
 H        -3.049111        -2.895432         0.041852
 H        -2.479057        -1.077219        -1.369334
 H         1.364617         1.122032        -0.881116
 H         1.351770         1.009410         1.030911
 H         2.056198        -1.147425        -1.143376
 H         2.473739        -1.160954         0.802267
 H        -0.027787        -1.553989         2.090415
 H        -0.581936         0.127520         1.949542
