19
Iteration:  4228charge 0 multiplicity 1
 O        -2.947499        -0.985260         1.500491
 C        -1.710892        -1.353305         0.843591
 C        -1.845387        -2.645022         0.054543
 C        -1.754613        -1.219110        -0.660098
 O        -0.506070        -0.611223        -1.086136
 C         0.379963        -0.522689         0.211114
 C         1.435423         0.554447        -0.004834
 C         1.766517        -0.993489        -0.104502
 C        -0.454482        -0.711456         1.426357
 H        -3.330378        -1.688283         2.096368
 H        -1.129118        -3.411520        -0.161949
 H        -2.836890        -3.013803        -0.032172
 H        -2.590446        -0.750019        -1.077179
 H         1.247557         0.981249        -0.921292
 H         1.581242         1.149458         0.917899
 H         2.033521        -1.257332        -1.114104
 H         2.344992        -1.239899         0.764684
 H         0.070468        -1.365668         2.079747
 H        -0.739783         0.237396         1.921667
