19
Iteration:  1818
 O        -2.914510        -1.259619         1.566395
 C        -1.690998        -1.242984         0.841252
 C        -1.503995        -2.432768        -0.031880
 C        -1.775325        -1.108628        -0.652776
 O        -0.550159        -0.509810        -0.994784
 C         0.267199        -0.388954         0.161237
 C         1.420481         0.360293        -0.139606
 C         1.534721        -1.247701         0.003826
 C        -0.532363        -0.490013         1.409438
 H        -2.925301        -2.050380         2.103459
 H        -0.570314        -3.094177        -0.034069
 H        -2.344744        -3.172243         0.120553
 H        -2.585810        -0.947391        -1.328308
 H         1.593132         0.733022        -1.220974
 H         1.874313         0.866046         0.706824
 H         1.754880        -1.757775        -1.005337
 H         2.139023        -1.676857         0.818019
 H        -0.004137        -1.043710         2.261713
 H        -0.950097         0.480369         1.637158
