19
Iteration:   431
 O        -2.952635        -1.048014         1.573936
 C        -1.749310        -1.334230         0.938480
 C        -1.726000        -2.613231         0.108734
 C        -1.734268        -1.279969        -0.559542
 O        -0.567281        -0.731518        -1.041930
 C         0.353396        -0.528401         0.042568
 C         1.437633         0.634960        -0.050136
 C         1.749923        -0.916847        -0.169749
 C        -0.461550        -0.629484         1.351293
 H        -3.533461        -1.802877         1.520047
 H        -0.915310        -3.339145         0.066776
 H        -2.753686        -3.106332         0.061965
 H        -2.640738        -0.791931        -0.984763
 H         1.268903         1.241444        -0.891387
 H         1.833618         1.115716         0.832088
 H         2.056253        -1.306950        -1.168662
 H         2.238261        -1.363334         0.609496
 H         0.258801        -1.085398         2.112465
 H        -0.743381         0.323668         1.693642
