19
Iteration:   428
 O        -2.951266        -1.040858         1.585332
 C        -1.755731        -1.326217         0.941644
 C        -1.732123        -2.644773         0.107684
 C        -1.752057        -1.249118        -0.564012
 O        -0.567006        -0.754560        -1.056901
 C         0.349983        -0.544800         0.046734
 C         1.427573         0.623381        -0.026699
 C         1.766205        -0.900334        -0.172123
 C        -0.455042        -0.618799         1.337544
 H        -3.501465        -1.840992         1.430292
 H        -0.800060        -3.363434         0.076637
 H        -2.773760        -3.119411         0.088557
 H        -2.603055        -0.691482        -0.939603
 H         1.224001         1.310668        -0.847128
 H         1.838342         1.067358         0.824376
 H         2.065514        -1.268547        -1.203871
 H         2.327880        -1.396211         0.654046
 H         0.269784        -1.015728         2.023640
 H        -0.753567         0.376858         1.692729
