19
Iteration:  4485charge 0 multiplicity 1
 O        -2.969124        -0.966994         1.479409
 C        -1.770968        -1.326203         0.842988
 C        -1.812092        -2.671831         0.109319
 C        -1.656156        -1.193610        -0.621865
 O        -0.520594        -0.561862        -1.053852
 C         0.336752        -0.425900         0.126712
 C         1.430586         0.543164        -0.049865
 C         1.779470        -0.998383        -0.097272
 C        -0.474912        -0.843606         1.429089
 H        -3.121649        -1.727961         2.105626
 H        -1.023652        -3.408837         0.119255
 H        -2.866840        -2.971230         0.031567
 H        -2.596862        -0.911295        -1.206814
 H         1.534326         1.030060        -1.030492
 H         1.656384         1.148591         0.930091
 H         1.846908        -1.400324        -1.076910
 H         2.247182        -1.520490         0.696390
 H         0.118711        -1.487472         2.197687
 H        -0.761990         0.123849         1.851961
