19
Iteration:  3893
 O        -2.980077        -1.221436         1.583764
 C        -1.846095        -1.181068         0.853698
 C        -1.494344        -2.546401        -0.005464
 C        -1.766179        -1.157657        -0.633285
 O        -0.561062        -0.485683        -0.979607
 C         0.305099        -0.592513         0.102735
 C         1.524705         0.368486        -0.055950
 C         1.677585        -1.116596        -0.090207
 C        -0.563326        -0.515326         1.351603
 H        -3.071257        -1.780734         2.387036
 H        -0.458549        -2.924796        -0.218538
 H        -2.382112        -3.172360        -0.048386
 H        -2.718105        -0.833439        -1.293448
 H         1.305301         0.857934        -0.966502
 H         1.867999         1.081823         0.685977
 H         2.048105        -1.642393        -0.953079
 H         2.151973        -1.537272         0.889493
 H        -0.146012        -0.956999         2.298647
 H        -0.805374         0.523939         1.575770
