19
Iteration:  4084charge 0 multiplicity 1
 O        -3.038245        -0.975054         1.527471
 C        -1.795860        -1.212240         0.822312
 C        -1.765556        -2.572100         0.092201
 C        -1.662296        -1.256060        -0.631831
 O        -0.501118        -0.588687        -1.067114
 C         0.390844        -0.519239         0.097729
 C         1.342721         0.476369         0.030890
 C         1.796479        -0.964439        -0.165874
 C        -0.436792        -0.848343         1.387293
 H        -2.899992        -1.554403         2.304400
 H        -0.862417        -3.237081         0.304749
 H        -2.768826        -3.048150        -0.028243
 H        -2.618997        -0.879004        -1.217879
 H         1.490472         1.190664        -0.870066
 H         1.543443         0.919724         1.110677
 H         2.213230        -1.132071        -1.159274
 H         2.270248        -1.366828         0.739579
 H        -0.225896        -1.686994         2.064892
 H        -0.759931        -0.019329         2.084844
