19
Iteration:  4289charge 0 multiplicity 1
 O        -2.996451        -1.038671         1.454097
 C        -1.795839        -1.323523         0.823849
 C        -1.486171        -2.581345         0.101002
 C        -1.723622        -1.146670        -0.622887
 O        -0.576730        -0.448559        -0.974963
 C         0.283276        -0.541719         0.115295
 C         1.461759         0.358697         0.007418
 C         1.638852        -1.078343        -0.129615
 C        -0.535178        -0.698674         1.339616
 H        -2.865400        -1.333459         2.397306
 H        -0.474367        -2.973315         0.300249
 H        -2.275216        -3.344040        -0.050678
 H        -2.633478        -1.019810        -1.118543
 H         1.640022         1.043397        -0.930392
 H         1.636497         0.839997         0.979643
 H         1.868736        -1.502443        -1.102622
 H         2.195952        -1.541248         0.621725
 H        -0.010816        -1.123302         2.244716
 H        -0.848471         0.302878         1.670885
