19
Iteration:   912
 O        -2.855759        -0.844816         1.753296
 C        -1.767030        -1.330510         0.826775
 C        -1.882062        -2.563438        -0.054517
 C        -1.728722        -1.085673        -0.676660
 O        -0.413543        -0.922132        -1.134981
 C         0.360744        -0.499454         0.111130
 C         1.151743         0.682164        -0.080586
 C         1.776967        -0.713190        -0.006992
 C        -0.367717        -1.142541         1.353643
 H        -3.257192        -1.406859         2.466538
 H        -0.998933        -3.212043        -0.277417
 H        -2.742928        -3.129124         0.017805
 H        -2.493639        -0.732441        -1.319370
 H         1.074139         1.394891        -0.975363
 H         1.300313         1.400850         0.829173
 H         2.252401        -1.337703        -0.808310
 H         2.237707        -1.019623         0.923240
 H         0.061422        -2.055722         1.780111
 H        -0.458682        -0.390627         2.095662
