19
Iteration:    57
 O        -2.946243        -1.288506         1.529774
 C        -1.652152        -1.340396         0.929256
 C        -1.322424        -2.518981         0.191715
 C        -1.766420        -1.202364        -0.587647
 O        -0.652198        -0.412796        -1.098732
 C         0.203894        -0.372999         0.058199
 C         1.515055         0.330547        -0.063286
 C         1.531255        -1.237069        -0.115680
 C        -0.607017        -0.344103         1.309787
 H        -2.949144        -1.915047         2.305861
 H        -0.314347        -2.861638        -0.074350
 H        -2.083343        -3.360489         0.418678
 H        -2.726286        -1.054530        -1.061097
 H         1.618442         0.820465        -1.055613
 H         1.900684         0.871985         0.810703
 H         1.656435        -1.669650        -1.058833
 H         1.913505        -1.932738         0.738916
 H         0.060876        -0.586497         2.200526
 H        -1.146801         0.547677         1.506271
