19
Iteration:  1789charge 0 multiplicity 1
 O        -3.080925        -1.263307         1.609999
 C        -1.778513        -1.347114         0.893759
 C        -1.417997        -2.499571        -0.025796
 C        -1.770741        -1.161255        -0.566880
 O        -0.673980        -0.326251        -0.984355
 C         0.306377        -0.344607         0.066426
 C         1.699706         0.302477        -0.217180
 C         1.613135        -1.241515         0.029034
 C        -0.592526        -0.525279         1.327429
 H        -3.067548        -1.908603         2.339027
 H        -0.342874        -2.923343         0.136385
 H        -2.205493        -3.293654        -0.242240
 H        -2.658353        -1.139751        -1.292661
 H         1.961489         0.735200        -1.225839
 H         2.158656         0.855140         0.604127
 H         1.862120        -1.888921        -0.869986
 H         1.908332        -1.474746         1.044673
 H        -0.032739        -0.820118         2.228802
 H        -1.043747         0.511530         1.488294
