19
Iteration:  2244charge 0 multiplicity 1
 O        -2.973391        -1.045091         1.582052
 C        -1.803412        -1.374235         0.865642
 C        -1.514256        -2.557084        -0.030742
 C        -1.792875        -1.146546        -0.615696
 O        -0.587487        -0.476826        -1.025153
 C         0.324457        -0.581575         0.150305
 C         1.474037         0.377543         0.017076
 C         1.763791        -1.069815        -0.217185
 C        -0.611700        -0.634408         1.380577
 H        -2.856123        -1.460413         2.459362
 H        -0.542994        -3.008706         0.073289
 H        -2.255882        -3.305655         0.063258
 H        -2.762334        -0.859474        -1.270970
 H         1.401979         1.080128        -0.710504
 H         1.936609         0.704427         0.976005
 H         1.783981        -1.451374        -1.189106
 H         2.399480        -1.488314         0.538635
 H        -0.168537        -1.018075         2.419251
 H        -0.861834         0.403346         1.427982
