19
Iteration:  3339charge 0 multiplicity 1
 O        -2.923009        -0.826617         1.593738
 C        -1.807126        -1.379528         0.905576
 C        -2.055996        -2.415967        -0.103749
 C        -1.744173        -1.127222        -0.620937
 O        -0.339903        -1.093690        -1.022698
 C         0.385715        -0.622330         0.086542
 C         1.181769         0.776634        -0.083449
 C         1.843119        -0.593065         0.031227
 C        -0.265899        -1.185913         1.358259
 H        -3.113794        -1.271925         2.406688
 H        -1.180235        -3.059872        -0.438466
 H        -3.151767        -2.682045        -0.201086
 H        -2.492631        -0.469584        -1.003508
 H         1.147626         1.290810        -1.063683
 H         1.266328         1.511188         0.774777
 H         2.189837        -1.066913        -0.994321
 H         2.357833        -0.983372         0.928400
 H         0.225725        -2.112852         1.727447
 H        -0.298106        -0.463676         2.146537
