19
Iteration:  3670
 O        -2.801108        -0.867223         1.584389
 C        -1.747676        -1.390664         0.778411
 C        -2.192201        -2.566593        -0.070050
 C        -1.736125        -1.168393        -0.650095
 O        -0.396604        -0.912657        -1.047845
 C         0.469922        -0.604066         0.155204
 C         1.127281         0.661509         0.012911
 C         1.977055        -0.610477        -0.084770
 C        -0.395711        -0.996325         1.434606
 H        -3.297222        -1.660380         1.951364
 H        -1.516325        -3.425717        -0.076981
 H        -3.269522        -2.758277         0.106663
 H        -2.524745        -0.500548        -1.144037
 H         1.107787         1.067459        -1.010992
 H         1.379219         1.269650         0.967338
 H         2.402480        -1.121675        -0.911283
 H         2.634099        -0.842135         0.790970
 H         0.073012        -1.846021         1.912018
 H        -0.657453        -0.198928         2.212560
