19
Iteration:  4619
 O        -2.884172        -0.695017         1.466244
 C        -1.802653        -1.307238         0.875100
 C        -1.863509        -2.582686         0.026421
 C        -1.735759        -1.295498        -0.625289
 O        -0.467268        -0.799038        -0.987790
 C         0.394535        -0.574352         0.124186
 C         1.210544         0.597324         0.097389
 C         1.844929        -0.767010        -0.202810
 C        -0.437443        -1.064010         1.398510
 H        -3.051089        -1.322644         2.206191
 H        -0.995380        -3.222207         0.019254
 H        -2.739549        -3.153112        -0.268086
 H        -2.517485        -0.954784        -1.184490
 H         1.078877         1.197175        -0.730057
 H         1.451448         1.117132         1.009684
 H         1.974359        -0.931431        -1.255857
 H         2.462204        -1.374933         0.493299
 H         0.188858        -1.783103         1.851815
 H        -0.368855        -0.330863         2.180325
