19
Iteration:  4663charge 0 multiplicity 1
 O        -2.942971        -0.823087         1.620001
 C        -1.823800        -1.305388         0.848586
 C        -1.957757        -2.528872        -0.037619
 C        -1.773454        -1.217279        -0.651162
 O        -0.498839        -0.934586        -1.008825
 C         0.448191        -0.565954         0.042664
 C         1.292297         0.616202         0.033600
 C         1.943217        -0.709762        -0.056874
 C        -0.371096        -1.006396         1.297800
 H        -2.947422        -1.293139         2.493224
 H        -1.258294        -3.328372        -0.119589
 H        -2.944045        -2.909507        -0.302751
 H        -2.446261        -0.723574        -1.193225
 H         1.355303         1.165584        -0.790150
 H         1.218187         1.275527         0.861939
 H         2.364614        -0.886138        -1.040716
 H         2.364949        -1.061456         0.907687
 H        -0.050264        -1.858178         1.917086
 H        -0.490003        -0.244106         2.061815
