19
Iteration:  2158charge 0 multiplicity 1
 O        -2.909069        -1.286336         1.612594
 C        -1.724280        -1.264301         0.912290
 C        -1.443396        -2.461625        -0.012445
 C        -1.668397        -1.133146        -0.633937
 O        -0.529226        -0.350772        -1.010110
 C         0.222079        -0.470299         0.139254
 C         1.441788         0.258808        -0.129959
 C         1.559571        -1.279084        -0.039208
 C        -0.658976        -0.425770         1.350074
 H        -3.035564        -2.169211         2.057588
 H        -0.502895        -2.859824        -0.303634
 H        -2.305783        -3.018040        -0.192517
 H        -2.647870        -0.893530        -1.211434
 H         1.236689         0.736806        -1.028694
 H         1.968301         0.836412         0.590450
 H         1.820438        -1.977762        -0.802443
 H         2.064145        -1.653615         0.765582
 H        -0.192065        -0.660757         2.356783
 H        -0.946379         0.573119         1.401863
