19
Iteration:   788
 O        -2.923920        -0.879119         1.713869
 C        -1.785173        -1.416017         0.850055
 C        -2.004475        -2.607691        -0.093251
 C        -1.790306        -1.282108        -0.621879
 O        -0.477353        -0.751340        -1.059021
 C         0.382489        -0.553409         0.030223
 C         1.297792         0.682518        -0.051503
 C         1.914934        -0.737982         0.065298
 C        -0.312771        -0.937234         1.304710
 H        -3.147249        -1.666375         2.296235
 H        -1.179506        -3.288982        -0.312205
 H        -2.984243        -3.114411        -0.105660
 H        -2.707410        -0.865581        -1.115860
 H         1.351785         0.974966        -1.079739
 H         1.299393         1.401363         0.585216
 H         2.413429        -0.960855        -0.915875
 H         2.231472        -1.122625         0.971693
 H         0.221708        -1.631645         1.818976
 H        -0.319434        -0.006144         1.879956
