19
Iteration:   155
 O        -2.940393        -0.980621         1.627215
 C        -1.730599        -1.341929         0.927577
 C        -1.579078        -2.668530         0.071827
 C        -1.761908        -1.252425        -0.549470
 O        -0.644141        -0.636729        -1.148367
 C         0.306005        -0.500503        -0.039744
 C         1.416913         0.550887         0.080574
 C         1.739605        -0.967930        -0.150270
 C        -0.457708        -0.634916         1.332667
 H        -3.389688        -1.860092         1.709641
 H        -0.572687        -3.148817         0.297640
 H        -2.564189        -3.290229        -0.150768
 H        -2.699479        -1.089944        -1.107453
 H         1.659734         1.293649        -0.717949
 H         1.390036         0.978221         1.105303
 H         2.209886        -1.308728        -1.143134
 H         2.045880        -1.657114         0.638601
 H         0.104757        -1.159603         2.210493
 H        -0.844826         0.318451         1.715904
