19
Iteration:   369
 O        -2.778206        -0.898299         1.753558
 C        -1.819805        -1.407179         0.879085
 C        -1.840689        -2.645277         0.119327
 C        -1.685172        -1.317157        -0.679192
 O        -0.451339        -0.679755        -1.127270
 C         0.311131        -0.419937         0.069074
 C         1.297198         0.686881        -0.183867
 C         1.745641        -0.859280        -0.006322
 C        -0.502453        -0.941062         1.337145
 H        -3.595653        -1.364312         1.584731
 H        -1.024734        -3.257152         0.187848
 H        -2.792823        -3.019736        -0.079103
 H        -2.449177        -0.972164        -1.412497
 H         1.348609         1.193111        -1.160140
 H         1.451219         1.332992         0.782266
 H         2.120741        -1.399613        -0.907638
 H         2.267698        -1.169915         0.923796
 H         0.125013        -1.716488         1.805070
 H        -0.653654        -0.130065         2.136932
