19
Iteration:  3178charge 0 multiplicity 1
 O        -2.959232        -1.007287         1.657046
 C        -1.851336        -1.224927         0.841124
 C        -1.871560        -2.569075        -0.054595
 C        -1.715748        -1.053504        -0.623068
 O        -0.447979        -0.867092        -1.071617
 C         0.352866        -0.547179         0.020638
 C         1.311438         0.595229        -0.019935
 C         1.768199        -0.824059        -0.017964
 C        -0.279461        -0.883227         1.351997
 H        -3.132442        -1.806510         2.179673
 H        -0.869861        -3.100855         0.129309
 H        -2.895352        -2.992538        -0.151518
 H        -2.621962        -0.751774        -1.191460
 H         1.361117         1.182424        -0.909199
 H         1.409991         1.421174         0.830258
 H         2.091396        -1.272646        -0.933731
 H         2.048418        -1.366626         0.961110
 H         0.122283        -1.773099         1.936307
 H        -0.381278        -0.061206         2.100620
