19
Iteration:  3748
 O        -2.928043        -0.811505         1.499398
 C        -1.811817        -1.457074         0.888022
 C        -2.009954        -2.664845         0.005926
 C        -1.655499        -1.259852        -0.591659
 O        -0.426749        -0.678922        -1.084353
 C         0.359791        -0.563244         0.077101
 C         1.228960         0.591650         0.045349
 C         1.893543        -0.735130        -0.122810
 C        -0.382894        -1.001883         1.426540
 H        -2.994079        -1.220808         2.395347
 H        -1.188203        -3.383988        -0.001667
 H        -3.062585        -2.820917        -0.149127
 H        -2.418909        -0.790153        -1.022738
 H         1.178668         1.286004        -0.839707
 H         1.490202         1.146054         0.944409
 H         2.215350        -0.957932        -1.139382
 H         2.496240        -1.159489         0.695533
 H         0.135953        -1.723892         2.035110
 H        -0.452902        -0.036470         1.994203
