19
Iteration:  1371
 O        -2.811042        -0.677785         1.519966
 C        -1.767981        -1.374282         0.858304
 C        -2.053901        -2.543354         0.007459
 C        -1.658468        -1.137433        -0.639476
 O        -0.344278        -1.016837        -1.108376
 C         0.390023        -0.623420         0.144512
 C         0.951863         0.729898         0.066844
 C         1.857809        -0.611958        -0.135712
 C        -0.293797        -1.254389         1.411596
 H        -2.914925        -1.042984         2.449085
 H        -1.269134        -3.221924        -0.178289
 H        -3.020903        -3.029843         0.163608
 H        -2.524838        -0.447825        -1.027724
 H         0.613355         1.390013        -0.735295
 H         1.258160         1.200059         1.043041
 H         2.140039        -0.853357        -1.132941
 H         2.445860        -0.756562         0.771620
 H         0.109760        -2.344106         1.533815
 H        -0.261454        -0.595969         2.257957
