19
Iteration:  4699
 O        -2.759801        -0.838680         1.605679
 C        -1.694048        -1.426872         0.863719
 C        -2.045879        -2.485476        -0.057126
 C        -1.664920        -1.135543        -0.692268
 O        -0.407626        -0.961641        -1.056409
 C         0.316402        -0.526298         0.175728
 C         1.199429         0.654578        -0.070058
 C         1.772091        -0.764616         0.020189
 C        -0.412500        -0.980534         1.405402
 H        -3.275363        -1.649168         1.772535
 H        -1.322158        -3.334340        -0.222934
 H        -3.147880        -2.579955        -0.158838
 H        -2.580676        -0.479936        -1.062674
 H         1.145887         0.997422        -1.173467
 H         1.258548         1.294916         0.786050
 H         2.244555        -1.254214        -0.920017
 H         2.354743        -1.151737         0.887675
 H         0.257023        -1.605391         1.876538
 H        -0.703118        -0.051812         1.984156
