19
Iteration:  2575charge 0 multiplicity 1
 O        -2.991247        -1.206709         1.553594
 C        -1.759400        -1.250930         0.849991
 C        -1.464817        -2.533805         0.021217
 C        -1.814908        -1.190077        -0.626094
 O        -0.591511        -0.443711        -1.043690
 C         0.332702        -0.436786         0.117157
 C         1.560376         0.421945         0.052249
 C         1.611058        -1.234987        -0.201036
 C        -0.593140        -0.518371         1.445256
 H        -2.908549        -1.606797         2.448490
 H        -0.547018        -3.127794        -0.245168
 H        -2.308277        -3.244269         0.095183
 H        -2.578115        -1.063875        -1.224930
 H         1.741981         1.043722        -0.912947
 H         1.860870         0.908899         0.933452
 H         1.586651        -1.561686        -1.331528
 H         2.037734        -1.934280         0.562997
 H        -0.072940        -1.154790         2.209589
 H        -0.769964         0.479665         1.702017
