19
Iteration:  1469
 O        -2.803487        -0.818863         1.663222
 C        -1.746506        -1.331324         0.891332
 C        -1.936496        -2.517789        -0.067448
 C        -1.764161        -1.117305        -0.653913
 O        -0.530132        -0.924835        -1.101475
 C         0.435547        -0.701655         0.099436
 C         1.186016         0.673823        -0.048670
 C         1.908238        -0.672555        -0.011994
 C        -0.438990        -1.079624         1.407022
 H        -3.432532        -1.585071         1.786832
 H        -1.104643        -3.257858        -0.247638
 H        -2.875327        -2.997653        -0.179556
 H        -2.602694        -0.596265        -1.333799
 H         1.039875         1.280947        -0.939529
 H         1.372719         1.422014         0.768013
 H         2.402067        -1.145608        -0.840569
 H         2.470589        -0.755725         0.935851
 H         0.071621        -1.875103         1.949071
 H        -0.534435        -0.229547         2.027652
