19
Iteration:  2918
 O        -3.047791        -1.025751         1.500646
 C        -1.850996        -1.301984         0.865693
 C        -1.627282        -2.601273         0.063932
 C        -1.762337        -1.224429        -0.639578
 O        -0.644770        -0.437103        -1.035649
 C         0.387610        -0.495009         0.163177
 C         1.503918         0.449933        -0.045236
 C         1.772802        -1.052314        -0.130828
 C        -0.449619        -0.792713         1.420165
 H        -3.245865        -1.697009         2.218284
 H        -0.614982        -2.912244         0.381531
 H        -2.400083        -3.394485        -0.228673
 H        -2.730109        -1.142251        -1.154098
 H         1.591542         1.198935        -0.837064
 H         1.953962         0.819786         0.933618
 H         1.804496        -1.378866        -1.183115
 H         2.583053        -1.501541         0.461722
 H         0.182988        -1.230912         2.146171
 H        -0.557814         0.274334         1.751820
