19
Iteration:  4088
 O        -3.029311        -0.977212         1.494278
 C        -1.808326        -1.197960         0.850830
 C        -1.759683        -2.539761         0.131674
 C        -1.669261        -1.242027        -0.656014
 O        -0.491857        -0.601776        -1.094640
 C         0.353708        -0.548109         0.149841
 C         1.370229         0.520088         0.023924
 C         1.794347        -0.983428        -0.196952
 C        -0.442623        -0.883316         1.439956
 H        -2.917830        -1.604019         2.251305
 H        -1.020219        -3.260682         0.283941
 H        -2.666890        -3.068151        -0.095537
 H        -2.462177        -0.966252        -1.215257
 H         1.395206         1.255813        -0.768840
 H         1.498130         0.849161         0.942753
 H         2.181350        -1.013905        -1.253838
 H         2.264410        -1.319309         0.700835
 H        -0.082034        -1.691846         2.080608
 H        -0.726272        -0.008913         2.054322
