19
Iteration:  1439charge 0 multiplicity 1
 O        -2.898619        -0.811159         1.690823
 C        -1.739027        -1.335495         0.856558
 C        -2.065529        -2.559292         0.016523
 C        -1.697477        -1.215864        -0.644107
 O        -0.398737        -0.949677        -1.087481
 C         0.400798        -0.555455         0.098932
 C         1.191213         0.825964         0.025739
 C         1.840840        -0.742315        -0.037146
 C        -0.321174        -1.089343         1.274550
 H        -3.433238        -1.583062         1.914130
 H        -1.318384        -3.459494         0.035103
 H        -3.152911        -2.725117        -0.165564
 H        -2.266136        -0.736805        -1.400158
 H         1.287019         1.306976        -0.929362
 H         1.206481         1.396100         0.895608
 H         2.087018        -0.939898        -1.102394
 H         2.395432        -1.155368         0.790016
 H         0.166918        -2.086079         1.424048
 H        -0.335416        -0.374368         2.099156
