19
Iteration:  3196
 O        -2.884709        -0.895503         1.635186
 C        -1.811858        -1.363735         0.881750
 C        -1.894388        -2.505466        -0.034282
 C        -1.757396        -1.202209        -0.678432
 O        -0.426232        -0.809540        -1.073160
 C         0.389240        -0.566818         0.125262
 C         1.266058         0.602355         0.002485
 C         1.871910        -0.807514        -0.080764
 C        -0.495897        -0.947005         1.346216
 H        -2.883003        -1.591287         2.307356
 H        -0.972447        -3.009399        -0.265924
 H        -2.907804        -2.857242         0.038058
 H        -2.599917        -0.694750        -1.164286
 H         1.301244         1.212289        -0.929234
 H         1.483482         1.303426         0.779602
 H         2.152850        -1.235238        -1.031582
 H         2.444666        -0.952414         0.857117
 H        -0.004380        -1.802819         1.859459
 H        -0.662068        -0.202125         2.109194
