19
Iteration:  1856
 O        -2.986495        -1.073390         1.658935
 C        -1.827866        -1.383847         0.841112
 C        -1.676508        -2.617833        -0.011035
 C        -1.835821        -1.222233        -0.634476
 O        -0.643539        -0.495183        -1.078453
 C         0.364005        -0.409809         0.040823
 C         1.613407         0.428032         0.008961
 C         1.858907        -1.044084        -0.053962
 C        -0.544025        -0.663687         1.313091
 H        -3.055962        -1.804350         2.328510
 H        -0.702511        -2.997684         0.046842
 H        -2.554240        -3.205713         0.143490
 H        -2.703041        -0.990201        -1.291634
 H         1.862406         1.000161        -0.807761
 H         1.894260         1.068982         0.887004
 H         2.108800        -1.150338        -1.026973
 H         2.234589        -1.712758         0.733462
 H        -0.138186        -1.011438         2.230327
 H        -1.109306         0.274021         1.711346
