19
Iteration:  1578charge 0 multiplicity 1
 O        -2.816980        -0.772708         1.557839
 C        -1.725442        -1.328138         0.902515
 C        -1.788196        -2.603036        -0.038538
 C        -1.821279        -1.288257        -0.710174
 O        -0.537087        -0.758138        -1.050608
 C         0.318920        -0.496821         0.135842
 C         1.223869         0.662626         0.022296
 C         1.820270        -0.873738        -0.106128
 C        -0.405552        -0.987642         1.441287
 H        -3.272980        -1.436654         2.071890
 H        -0.954681        -3.325949         0.037994
 H        -2.713021        -3.138210        -0.163735
 H        -2.756139        -0.834833        -1.239110
 H         1.314285         1.222412        -0.929614
 H         1.506162         0.944826         0.994638
 H         2.194652        -1.070860        -1.151910
 H         2.449315        -1.145925         0.724190
 H         0.042939        -2.006021         1.785565
 H        -0.427802        -0.318554         2.288383
