19
Iteration:  3135charge 0 multiplicity 1
 O        -2.905420        -0.949811         1.633853
 C        -1.773739        -1.355185         0.875592
 C        -1.864064        -2.685221        -0.052186
 C        -1.721225        -1.184007        -0.636078
 O        -0.501263        -0.625385        -0.995104
 C         0.392913        -0.556168         0.147785
 C         1.395186         0.552699        -0.038946
 C         1.817234        -0.910084        -0.143164
 C        -0.548851        -0.770511         1.325606
 H        -3.119921        -1.726620         2.142322
 H        -0.885427        -3.309993         0.187915
 H        -2.760010        -3.309943        -0.372213
 H        -2.589659        -0.730625        -1.198540
 H         1.303009         1.141609        -0.972136
 H         1.699779         1.255749         0.902782
 H         2.175626        -1.417967        -1.034056
 H         2.329033        -1.399640         0.781846
 H        -0.038522        -1.256273         2.201858
 H        -0.788069         0.270128         1.698624
