19
Iteration:  4414charge 0 multiplicity 1
 O        -3.018505        -1.189184         1.487982
 C        -1.754231        -1.286338         0.875610
 C        -1.536149        -2.622512         0.048096
 C        -1.691575        -1.262157        -0.568218
 O        -0.585314        -0.423625        -0.981002
 C         0.320936        -0.278227         0.036566
 C         1.621173         0.386130        -0.016504
 C         1.563964        -1.203660        -0.086109
 C        -0.554763        -0.508078         1.337153
 H        -2.960217        -1.585958         2.401737
 H        -0.714369        -3.338875         0.109137
 H        -2.534132        -3.071180        -0.039655
 H        -2.558425        -1.173418        -1.337972
 H         1.887965         1.046531        -0.889517
 H         1.925364         0.618150         0.925284
 H         1.485273        -1.646486        -1.141020
 H         1.849872        -1.881772         0.764501
 H        -0.078635        -0.900148         2.205246
 H        -1.087617         0.454214         1.668876
