19
Iteration:  2484
 O        -2.892231        -0.985073         1.615995
 C        -1.786436        -1.321141         0.862595
 C        -1.805484        -2.543140        -0.039990
 C        -1.769171        -1.148139        -0.602770
 O        -0.471997        -0.677188        -1.098005
 C         0.316276        -0.612576         0.052628
 C         1.305257         0.508793         0.042926
 C         1.819668        -0.892299        -0.088543
 C        -0.438395        -0.789192         1.405097
 H        -3.048864        -1.745345         2.227556
 H        -0.966228        -3.235055        -0.038098
 H        -2.709581        -3.121686        -0.182119
 H        -2.609480        -0.570803        -1.245937
 H         1.207682         1.001205        -0.890430
 H         1.507339         1.154939         0.915032
 H         2.181103        -1.259706        -1.021381
 H         2.365386        -1.412740         0.722059
 H         0.052447        -1.410488         2.152064
 H        -0.663689         0.178021         1.789359
