19
Iteration:  3002
 O        -2.975521        -1.362128         1.641646
 C        -1.754934        -1.339826         0.895330
 C        -1.441258        -2.458977        -0.015073
 C        -1.800339        -1.073237        -0.650723
 O        -0.606946        -0.293814        -1.098584
 C         0.260794        -0.420965         0.078640
 C         1.620388         0.241288        -0.127334
 C         1.565072        -1.265934         0.116036
 C        -0.567890        -0.405602         1.296333
 H        -2.961109        -2.114882         2.237180
 H        -0.538634        -3.000827        -0.012135
 H        -2.231693        -3.175663        -0.008547
 H        -2.671099        -0.913881        -1.311230
 H         1.863301         0.660243        -1.088221
 H         1.831874         0.910380         0.724484
 H         1.723331        -1.925053        -0.706046
 H         1.592686        -1.673942         1.078099
 H         0.143327        -0.796681         2.093469
 H        -0.832929         0.621305         1.484620
