19
Iteration:   429
 O        -2.951622        -1.043708         1.580967
 C        -1.754426        -1.327914         0.941184
 C        -1.729317        -2.633271         0.107905
 C        -1.745655        -1.259997        -0.562785
 O        -0.567998        -0.747232        -1.051466
 C         0.351503        -0.540607         0.044865
 C         1.432028         0.630111        -0.033720
 C         1.760660        -0.906609        -0.169195
 C        -0.457863        -0.621087         1.342447
 H        -3.510220        -1.826136         1.458718
 H        -0.826601        -3.367521         0.074192
 H        -2.784005        -3.118678         0.078795
 H        -2.615117        -0.717925        -0.951078
 H         1.235638         1.283580        -0.849806
 H         1.834588         1.075597         0.809092
 H         2.068049        -1.285313        -1.204172
 H         2.290214        -1.381648         0.628956
 H         0.273437        -1.035985         2.049371
 H        -0.747780         0.346700         1.689474
