19
Iteration:    36charge 0 multiplicity 1
 O        -2.899345        -1.145823         1.694971
 C        -1.812199        -1.283493         0.838375
 C        -1.340636        -2.637823         0.100601
 C        -1.602725        -1.377044        -0.664543
 O        -0.726728        -0.348347        -1.035615
 C         0.186085        -0.395407         0.020375
 C         1.562677         0.378202        -0.077674
 C         1.415304        -1.151198        -0.057247
 C        -0.555318        -0.434758         1.278465
 H        -2.846585        -1.848031         2.337026
 H        -0.334719        -3.086187         0.333081
 H        -2.129491        -3.448099        -0.407469
 H        -2.424251        -1.463826        -1.349884
 H         1.912408         0.869410        -1.017792
 H         1.836194         0.874910         0.863640
 H         1.775642        -1.595402        -0.938454
 H         1.980410        -1.622830         0.894104
 H        -0.053484        -1.050574         2.141420
 H        -0.763546         0.518003         1.635344
