19
Iteration:   160
 O        -2.913524        -1.004635         1.587522
 C        -1.759104        -1.384662         0.934521
 C        -1.614409        -2.636799         0.138116
 C        -1.757617        -1.215443        -0.538053
 O        -0.633518        -0.657671        -1.117859
 C         0.305513        -0.500738        -0.034843
 C         1.425506         0.542659         0.084784
 C         1.759979        -0.949575        -0.189227
 C        -0.479980        -0.658370         1.293349
 H        -3.458739        -1.788699         1.724786
 H        -0.691328        -3.200483         0.244607
 H        -2.500949        -3.099162        -0.044194
 H        -2.621672        -1.106477        -1.173942
 H         1.555074         1.388217        -0.560812
 H         1.480323         0.922144         1.090472
 H         2.192839        -1.204966        -1.135350
 H         2.173362        -1.510201         0.667517
 H        -0.000927        -1.133438         2.109566
 H        -0.748087         0.374477         1.596896
