19
Iteration:  1458
 O        -2.809034        -0.842168         1.662210
 C        -1.830051        -1.338443         0.826700
 C        -1.997564        -2.531357        -0.027702
 C        -1.775424        -1.166585        -0.615781
 O        -0.421706        -0.913122        -1.075878
 C         0.337793        -0.604561         0.097475
 C         1.209567         0.628613        -0.050637
 C         1.932318        -0.635094        -0.027945
 C        -0.353489        -1.057273         1.350364
 H        -3.535087        -1.472768         1.871899
 H        -1.070603        -3.118330        -0.087676
 H        -2.935354        -3.016204        -0.100034
 H        -2.599278        -0.535976        -1.164188
 H         1.047366         1.057666        -1.030415
 H         1.303381         1.246450         0.873119
 H         2.481426        -0.908476        -0.887697
 H         2.355622        -0.978199         0.932312
 H        -0.070456        -1.988333         1.750918
 H        -0.366972        -0.338939         2.132027
