19
Iteration:  3200charge 0 multiplicity 1
 O        -2.871876        -0.875551         1.629956
 C        -1.822124        -1.359286         0.863510
 C        -1.927515        -2.536248        -0.064003
 C        -1.738129        -1.233178        -0.687876
 O        -0.432445        -0.791882        -1.068551
 C         0.394119        -0.580163         0.136995
 C         1.270491         0.581209         0.011770
 C         1.897474        -0.767325        -0.109813
 C        -0.487656        -0.936250         1.374256
 H        -2.894166        -1.526024         2.369150
 H        -0.942463        -3.062823        -0.241739
 H        -2.960029        -2.910126         0.076219
 H        -2.625947        -0.678728        -1.013267
 H         1.228551         1.150747        -0.884069
 H         1.427655         1.404253         0.792382
 H         2.128276        -1.276869        -1.038110
 H         2.411079        -1.013619         0.847437
 H        -0.023139        -1.816233         1.923811
 H        -0.728581        -0.210390         2.183409
