19
Iteration:  4340
 O        -2.930059        -1.310481         1.635916
 C        -1.770312        -1.273052         0.874243
 C        -1.537245        -2.495307         0.003165
 C        -1.755227        -1.122217        -0.634940
 O        -0.572970        -0.451136        -1.083230
 C         0.318768        -0.340651         0.095047
 C         1.684258         0.361225        -0.039313
 C         1.547952        -1.247070         0.069586
 C        -0.676611        -0.434452         1.227989
 H        -2.987077        -2.077725         2.214922
 H        -0.557070        -2.958252        -0.161107
 H        -2.380573        -3.229520        -0.113624
 H        -2.659457        -1.024582        -1.319989
 H         1.905909         0.604055        -1.114057
 H         2.033106         0.898029         0.740584
 H         1.704773        -2.003633        -0.774548
 H         1.709507        -1.709278         1.096173
 H        -0.209051        -0.797069         2.156715
 H        -1.064887         0.520010         1.583261
