19
Iteration:   254
 O        -2.872121        -0.910805         1.636544
 C        -1.770344        -1.397629         0.947828
 C        -1.887508        -2.631486         0.007720
 C        -1.748569        -1.216814        -0.596500
 O        -0.528827        -0.770452        -1.118923
 C         0.356689        -0.535700        -0.009227
 C         1.257481         0.632200        -0.082495
 C         1.865543        -0.783563         0.038182
 C        -0.377328        -0.867170         1.266705
 H        -3.164639        -1.562220         2.287275
 H        -1.091372        -3.498808        -0.063579
 H        -2.898649        -3.131461         0.072147
 H        -2.561882        -0.605504        -0.923248
 H         1.305785         1.168967        -1.010680
 H         1.241192         1.288130         0.790180
 H         2.406395        -1.170617        -0.833386
 H         2.230929        -1.091640         1.049590
 H         0.289211        -1.542125         1.934210
 H        -0.504417         0.054564         1.843203
