19
Iteration:   967charge 0 multiplicity 1
 O        -2.873927        -0.954184         1.570699
 C        -1.737854        -1.400906         0.917840
 C        -2.090379        -2.539828        -0.002633
 C        -1.709185        -1.200219        -0.607789
 O        -0.399988        -0.952109        -1.135088
 C         0.362248        -0.577478         0.082040
 C         1.236299         0.708588         0.054521
 C         1.871362        -0.628477        -0.124110
 C        -0.369679        -0.945646         1.362595
 H        -3.211418        -1.344506         2.401868
 H        -1.419533        -3.362984        -0.062587
 H        -3.159219        -2.606204        -0.094467
 H        -2.473283        -0.519134        -0.842942
 H         1.188903         1.472358        -0.832876
 H         1.504717         1.001492         1.124171
 H         2.233992        -0.963979        -1.129353
 H         2.488044        -0.852402         0.706723
 H         0.121833        -1.791522         1.837519
 H        -0.451266        -0.127975         2.025660
