19
Iteration:  3601charge 0 multiplicity 1
 O        -2.791057        -0.720188         1.539266
 C        -1.805651        -1.350759         0.842747
 C        -2.098713        -2.590345         0.011690
 C        -1.653970        -1.178197        -0.652717
 O        -0.396329        -0.960574        -1.141850
 C         0.381915        -0.696337         0.101914
 C         1.052362         0.695122         0.125577
 C         1.919616        -0.509643        -0.073161
 C        -0.356796        -1.193756         1.348770
 H        -2.931907        -1.325637         2.330055
 H        -1.484353        -3.428138         0.369318
 H        -3.152106        -2.687090        -0.145312
 H        -2.556167        -0.670673        -1.198871
 H         1.114208         1.421225        -0.661860
 H         1.225768         1.104218         1.095107
 H         2.414995        -0.725895        -1.019928
 H         2.497460        -0.924178         0.757745
 H         0.007123        -2.139826         1.862613
 H        -0.207586        -0.439551         2.084752
