19
Iteration:  3459
 O        -2.724285        -0.624684         1.636385
 C        -1.799824        -1.366544         0.832549
 C        -2.127504        -2.548964        -0.101455
 C        -1.718484        -1.157427        -0.681656
 O        -0.323435        -1.065477        -1.086475
 C         0.434574        -0.699164         0.164170
 C         0.950490         0.698210         0.071783
 C         1.884398        -0.472773        -0.008339
 C        -0.322569        -1.292262         1.269740
 H        -2.960737        -1.176552         2.446219
 H        -1.480626        -3.420265        -0.086774
 H        -3.196901        -2.688314         0.043395
 H        -2.391027        -0.517309        -1.195131
 H         0.721719         1.194407        -0.863868
 H         0.971645         1.295717         0.963454
 H         2.257550        -0.614694        -1.023311
 H         2.548910        -0.574093         0.855230
 H         0.130340        -2.216816         1.599709
 H        -0.249760        -0.769574         2.197178
