19
Iteration:  1628charge 0 multiplicity 1
 O        -2.962219        -1.020539         1.593722
 C        -1.735674        -1.253697         0.887126
 C        -1.882138        -2.511291         0.020957
 C        -1.782049        -1.253427        -0.674788
 O        -0.505113        -0.720394        -1.020644
 C         0.374288        -0.611608         0.081916
 C         1.368016         0.533526         0.016591
 C         1.870587        -0.774667        -0.138773
 C        -0.404137        -0.803014         1.387328
 H        -3.043360        -1.757788         2.258169
 H        -1.197468        -3.383580        -0.067642
 H        -2.968186        -2.855854        -0.039008
 H        -2.549528        -0.947867        -1.501948
 H         1.358246         1.079035        -0.946150
 H         1.319952         1.061791         0.964005
 H         2.144621        -1.211034        -1.141119
 H         2.474847        -1.256673         0.681696
 H        -0.071419        -1.565248         2.069851
 H        -0.507081         0.192503         1.890511
