19
Iteration:  1043
 O        -2.828777        -0.786663         1.527508
 C        -1.762120        -1.405184         0.836831
 C        -2.077720        -2.658494         0.011959
 C        -1.794488        -1.297330        -0.604573
 O        -0.522373        -0.828609        -1.016353
 C         0.431390        -0.511882         0.050030
 C         1.186675         0.706887         0.047792
 C         1.925380        -0.655038        -0.025886
 C        -0.260716        -1.039450         1.301060
 H        -3.103920        -1.324490         2.312522
 H        -1.304951        -3.333604        -0.013445
 H        -3.146096        -2.886320         0.103069
 H        -2.596985        -0.852226        -1.149955
 H         1.170386         1.171978        -1.029683
 H         1.368197         1.286880         1.042323
 H         2.253575        -0.930992        -1.068970
 H         2.463687        -1.037951         0.827960
 H         0.155330        -2.023162         1.498247
 H        -0.230353        -0.489347         2.190067
