19
Iteration:   395charge 0 multiplicity 1
 O        -2.831426        -0.984847         1.815724
 C        -1.814489        -1.266553         0.861246
 C        -1.731498        -2.558686         0.050138
 C        -1.780504        -1.284781        -0.703568
 O        -0.506496        -0.865066        -1.099605
 C         0.359515        -0.603541         0.036149
 C         1.314854         0.624142         0.045600
 C         1.805691        -0.809061        -0.163080
 C        -0.528820        -0.715307         1.309041
 H        -3.585278        -1.426222         1.432183
 H        -0.696870        -3.209937         0.189038
 H        -2.779903        -3.042055        -0.053858
 H        -2.534968        -0.953643        -1.392776
 H         1.313058         1.282627        -0.848671
 H         1.483167         1.112805         0.966437
 H         2.216365        -0.980947        -1.167356
 H         2.365781        -1.414818         0.684637
 H        -0.053986        -1.303771         2.094212
 H        -0.626612         0.301521         1.719817
