19
Iteration:  2806
 O        -2.869970        -0.990882         1.542833
 C        -1.761309        -1.349284         0.900218
 C        -1.808746        -2.519477         0.022436
 C        -1.755604        -1.106584        -0.684585
 O        -0.521614        -0.760001        -1.036268
 C         0.297458        -0.549712         0.090994
 C         1.398264         0.630342        -0.025866
 C         1.737551        -0.957114        -0.023612
 C        -0.432316        -0.864987         1.398274
 H        -3.295955        -1.714359         2.032214
 H        -0.861959        -2.831253        -0.360666
 H        -2.683002        -3.054332        -0.020053
 H        -2.744697        -0.578970        -1.076415
 H         1.466345         1.179849        -1.037153
 H         1.668265         1.074642         0.857839
 H         1.932327        -1.338723        -1.026074
 H         2.351989        -1.316763         0.713739
 H         0.257744        -1.400654         2.050681
 H        -0.740881         0.001883         1.928220
