19
Iteration:  2252charge 0 multiplicity 1
 O        -2.993501        -1.036808         1.601590
 C        -1.849457        -1.392590         0.869940
 C        -1.610209        -2.607148        -0.012893
 C        -1.793111        -1.138910        -0.603342
 O        -0.581180        -0.501910        -1.079582
 C         0.368762        -0.479446         0.160203
 C         1.520533         0.428941         0.038172
 C         1.780448        -1.072746        -0.228696
 C        -0.587303        -0.690436         1.406823
 H        -2.899991        -1.460451         2.462086
 H        -0.559618        -2.899695         0.110840
 H        -2.378641        -3.350947        -0.208936
 H        -2.579340        -1.059840        -1.266395
 H         1.564024         1.042366        -0.877613
 H         1.880206         0.798273         1.016798
 H         1.915699        -1.577870        -1.176696
 H         2.604159        -1.411214         0.361341
 H        -0.117828        -0.961679         2.336951
 H        -1.011550         0.341057         1.626627
