19
Iteration:  4356charge 0 multiplicity 1
 O        -2.945171        -1.324964         1.660817
 C        -1.776910        -1.218535         0.821362
 C        -1.433288        -2.443594        -0.038484
 C        -1.761937        -1.132618        -0.742163
 O        -0.589506        -0.382913        -1.081575
 C         0.263504        -0.473556         0.091567
 C         1.500201         0.178314        -0.118876
 C         1.575537        -1.235032         0.163050
 C        -0.580946        -0.363177         1.388176
 H        -2.909986        -2.228332         1.954830
 H        -0.437475        -2.876297        -0.023858
 H        -2.230719        -3.187665        -0.028588
 H        -2.596299        -0.849758        -1.368265
 H         1.583785         0.555062        -1.109731
 H         2.040062         0.998425         0.557216
 H         1.911986        -1.771020        -0.663325
 H         1.956962        -1.649783         1.067906
 H        -0.079076        -0.690879         2.319679
 H        -0.938732         0.697898         1.552038
