19
Iteration:  3110charge 0 multiplicity 1
 O        -2.991857        -0.965946         1.585751
 C        -1.785216        -1.363587         0.868643
 C        -1.602563        -2.636409         0.011958
 C        -1.723832        -1.178368        -0.684535
 O        -0.571413        -0.551408        -1.039447
 C         0.300909        -0.484263         0.158510
 C         1.454195         0.456366        -0.015217
 C         1.679641        -0.981873        -0.150877
 C        -0.473323        -0.735873         1.418366
 H        -2.931738        -1.443345         2.412912
 H        -0.826235        -3.356841         0.057424
 H        -2.569402        -3.063801        -0.198074
 H        -2.410850        -1.217424        -1.469138
 H         1.549970         1.171012        -0.901662
 H         1.696540         0.932178         0.859536
 H         1.730166        -1.515128        -1.113786
 H         2.286855        -1.478552         0.561573
 H         0.155739        -1.406087         2.094012
 H        -0.685135         0.161311         1.974909
