19
Iteration:  1299
 O        -2.634167        -0.705293         1.682793
 C        -1.673122        -1.264259         0.882482
 C        -2.106798        -2.446099        -0.080465
 C        -1.735687        -1.141415        -0.770469
 O        -0.343206        -1.209013        -1.046776
 C         0.390924        -0.657900         0.021580
 C         0.783656         0.739510         0.078570
 C         1.882175        -0.524243        -0.057274
 C        -0.209763        -1.231432         1.435425
 H        -3.458833        -1.233298         1.693872
 H        -1.571520        -3.446881        -0.194913
 H        -3.218812        -2.686006        -0.256030
 H        -2.366047        -0.492343        -1.316943
 H         0.626143         1.208976        -0.827817
 H         0.575317         1.291357         0.952703
 H         2.394614        -0.691936        -0.959938
 H         2.271107        -0.838823         0.960468
 H        -0.090433        -2.225593         1.645329
 H        -0.288177        -0.545771         2.312766
