19
Iteration:  4148charge 0 multiplicity 1
 O        -2.947662        -0.881130         1.544659
 C        -1.762689        -1.370504         0.867719
 C        -1.873473        -2.641135        -0.016920
 C        -1.703945        -1.212313        -0.615388
 O        -0.494375        -0.651867        -1.094431
 C         0.381411        -0.552551         0.198574
 C         1.338603         0.554367        -0.017753
 C         1.817002        -0.865956        -0.038092
 C        -0.444846        -0.880519         1.321463
 H        -3.189756        -1.551093         2.246576
 H        -1.053628        -3.389583        -0.072564
 H        -2.920450        -2.971105         0.096203
 H        -2.673506        -0.771904        -1.029986
 H         1.371167         1.103753        -1.027782
 H         1.648291         1.241482         0.812547
 H         2.218779        -1.273898        -0.924480
 H         2.337257        -1.383529         0.726566
 H         0.164350        -1.481729         2.009839
 H        -0.666218         0.040746         1.860549
