19
Iteration:  2004charge 0 multiplicity 1
 O        -2.852946        -0.917859         1.684706
 C        -1.788484        -1.428084         0.832718
 C        -1.792994        -2.582730        -0.067082
 C        -1.791518        -1.117770        -0.624466
 O        -0.494164        -0.674770        -1.086498
 C         0.350548        -0.552367         0.084794
 C         1.335276         0.577450        -0.000184
 C         1.837755        -0.919415        -0.041365
 C        -0.497919        -0.846235         1.329913
 H        -3.185227        -1.622185         2.242345
 H        -0.904316        -3.267800        -0.105103
 H        -2.719496        -3.223067        -0.158328
 H        -2.664475        -0.802584        -1.152313
 H         1.320882         1.129068        -0.911638
 H         1.582424         1.265879         0.860321
 H         2.118825        -1.204344        -1.003652
 H         2.088412        -1.506797         0.893991
 H         0.069352        -1.495144         2.083811
 H        -0.792464         0.051504         1.806836
