19
Iteration:  4567charge 0 multiplicity 1
 O        -2.900795        -0.904102         1.584787
 C        -1.791297        -1.253480         0.791454
 C        -1.923131        -2.596180         0.078355
 C        -1.715643        -1.172073        -0.715156
 O        -0.426491        -0.770774        -1.050982
 C         0.369269        -0.577809         0.076139
 C         1.250132         0.593338         0.019773
 C         1.799022        -0.842350        -0.022705
 C        -0.391052        -0.918216         1.376627
 H        -3.013845        -1.696497         2.130997
 H        -1.328914        -3.521477         0.155408
 H        -3.017344        -2.816854         0.090800
 H        -2.417785        -0.762980        -1.317184
 H         1.292175         1.042017        -0.890367
 H         1.292612         1.292886         0.828612
 H         2.036978        -0.931132        -1.091428
 H         2.460660        -1.425942         0.731498
 H         0.177329        -1.734920         1.758067
 H        -0.222865        -0.035031         2.107843
