19
Iteration:  1248charge 0 multiplicity 1
 O        -2.754565        -0.615405         1.618457
 C        -1.763296        -1.361914         0.924876
 C        -2.301560        -2.563847        -0.084046
 C        -1.696706        -1.283031        -0.703544
 O        -0.314271        -1.085791        -1.034547
 C         0.474070        -0.657887         0.161422
 C         0.970123         0.754571         0.046765
 C         1.944036        -0.368952        -0.122074
 C        -0.249647        -1.334689         1.362108
 H        -3.400749        -1.236587         2.075766
 H        -1.851180        -3.562616        -0.237827
 H        -3.338737        -2.689923         0.020984
 H        -2.294669        -0.724887        -1.357347
 H         0.626516         1.290400        -0.869186
 H         1.152095         1.347500         1.007097
 H         2.123202        -0.633953        -1.167482
 H         2.769121        -0.375497         0.709019
 H         0.197129        -2.381767         1.501837
 H        -0.201363        -0.621153         2.252208
