19
Iteration:  1429charge 0 multiplicity 1
 O        -2.834384        -0.814402         1.632420
 C        -1.819540        -1.337680         0.861819
 C        -2.063187        -2.488882         0.032413
 C        -1.656463        -1.258072        -0.673895
 O        -0.402176        -0.986429        -1.114494
 C         0.365739        -0.554985         0.062692
 C         1.245333         0.781950         0.052568
 C         1.786055        -0.615143        -0.073950
 C        -0.324628        -1.123446         1.339151
 H        -3.278943        -1.534233         2.067821
 H        -1.456499        -3.491275         0.024500
 H        -3.159083        -2.649581        -0.144025
 H        -2.487879        -0.904528        -1.201044
 H         1.149525         1.485672        -0.774393
 H         1.465089         1.143719         1.001133
 H         2.262974        -0.974077        -1.037548
 H         2.369984        -1.072531         0.705637
 H         0.003470        -2.154870         1.900177
 H        -0.287287        -0.470706         2.257975
