19
Iteration:  1392charge 0 multiplicity 1
 O        -2.820268        -0.689789         1.511507
 C        -1.768873        -1.334796         0.893356
 C        -1.970391        -2.541069        -0.090875
 C        -1.734370        -1.191333        -0.566271
 O        -0.417038        -0.988178        -1.019955
 C         0.405009        -0.786534         0.088908
 C         1.045629         0.681054         0.108379
 C         1.865832        -0.537675        -0.151860
 C        -0.316197        -1.175652         1.400251
 H        -2.852107        -0.940066         2.435840
 H        -1.225309        -3.274894        -0.197692
 H        -2.978999        -2.843646        -0.335405
 H        -2.602288        -0.639446        -1.135940
 H         0.814965         1.279064        -0.772960
 H         0.982166         1.212494         1.099592
 H         2.083738        -0.652207        -1.181057
 H         2.525549        -0.954505         0.617378
 H         0.123910        -2.030582         1.811996
 H        -0.198911        -0.276237         1.910865
