19
Iteration:  1451
 O        -2.846421        -0.823828         1.683115
 C        -1.853434        -1.309537         0.847096
 C        -2.028218        -2.571469        -0.014336
 C        -1.770631        -1.160894        -0.653807
 O        -0.343603        -0.912309        -1.037391
 C         0.389609        -0.513096         0.040517
 C         1.158152         0.648673         0.007359
 C         1.895537        -0.688361        -0.026734
 C        -0.342082        -1.065720         1.288000
 H        -3.448046        -1.613284         1.788531
 H        -1.213392        -3.398014        -0.070309
 H        -3.052047        -3.066564        -0.029450
 H        -2.617389        -0.717055        -1.024104
 H         1.184193         1.075030        -0.999506
 H         1.172976         1.390733         0.735817
 H         2.392964        -1.011962        -1.007053
 H         2.459692        -1.096854         0.784676
 H         0.213700        -1.998290         1.708079
 H        -0.244531        -0.448692         2.227956
