19
Iteration:   986
 O        -2.872845        -0.813434         1.613872
 C        -1.792048        -1.305460         0.792600
 C        -1.934919        -2.579441        -0.032559
 C        -1.827951        -1.191369        -0.634507
 O        -0.407789        -1.000842        -0.969751
 C         0.420354        -0.543335         0.100737
 C         1.235895         0.693677         0.122393
 C         1.816305        -0.643609        -0.213378
 C        -0.359589        -1.040834         1.384341
 H        -3.187492        -1.635509         2.016157
 H        -1.041747        -3.282083        -0.231977
 H        -2.839989        -3.146446        -0.029417
 H        -2.520006        -0.694452        -1.333554
 H         1.107447         1.351558        -0.806402
 H         1.321329         1.178437         1.140749
 H         1.979378        -0.709636        -1.392199
 H         2.590228        -1.238980         0.412696
 H         0.057321        -1.893393         1.936777
 H        -0.480240        -0.170334         2.051505
