19
Iteration:  4558charge 0 multiplicity 1
 O        -2.970731        -0.960324         1.662409
 C        -1.753920        -1.179822         0.768737
 C        -1.886248        -2.534689         0.069887
 C        -1.746120        -1.123664        -0.735162
 O        -0.417223        -0.813655        -1.111680
 C         0.371248        -0.635963         0.135608
 C         1.239270         0.593596        -0.006208
 C         1.828556        -0.846025        -0.029592
 C        -0.366113        -0.916933         1.368257
 H        -2.793790        -1.691616         2.269408
 H        -1.037006        -3.223922         0.088303
 H        -2.976665        -2.788814         0.017468
 H        -2.507672        -0.807663        -1.419191
 H         1.245572         1.165407        -0.871452
 H         1.331752         1.237579         0.907186
 H         2.167301        -1.295659        -0.985258
 H         2.326291        -1.268729         0.895179
 H        -0.018190        -1.852641         1.822091
 H        -0.580576         0.040327         1.904607
