19
Iteration:  3632
 O        -2.913583        -0.755558         1.547592
 C        -1.810139        -1.331675         0.878910
 C        -1.981436        -2.546160        -0.156942
 C        -1.689086        -1.100243        -0.651627
 O        -0.364456        -1.049212        -0.960988
 C         0.378767        -0.533385         0.168113
 C         1.049655         0.695270         0.023527
 C         1.895198        -0.695228        -0.155331
 C        -0.304470        -1.111125         1.435691
 H        -3.016670        -1.245173         2.356855
 H        -1.129166        -3.235352        -0.076123
 H        -2.944888        -3.042423        -0.179376
 H        -2.523432        -0.599106        -1.106425
 H         1.104183         1.404735        -0.758702
 H         1.084852         1.277786         0.874230
 H         2.097021        -0.860267        -1.198760
 H         2.471746        -1.099729         0.719364
 H         0.066928        -2.167190         1.416097
 H        -0.032477        -0.679936         2.359534
