19
Iteration:   578charge 0 multiplicity 1
 O        -2.878311        -1.163669         1.682940
 C        -1.682264        -1.338080         0.826336
 C        -1.407072        -2.571407        -0.023358
 C        -1.698256        -1.198395        -0.576067
 O        -0.695935        -0.335619        -1.056366
 C         0.191705        -0.382796         0.086411
 C         1.489497         0.309766        -0.163048
 C         1.567230        -1.217271         0.077569
 C        -0.544438        -0.497725         1.375668
 H        -3.546202        -1.810367         1.352714
 H        -0.370433        -2.888336        -0.179166
 H        -2.120828        -3.441462        -0.261716
 H        -2.652622        -1.153468        -1.081885
 H         1.488150         0.503744        -1.251503
 H         1.992011         1.094101         0.460282
 H         1.791538        -1.871722        -0.895494
 H         1.907969        -1.674781         1.004051
 H         0.048949        -0.939808         2.139145
 H        -1.161911         0.343842         1.756878
