19
Iteration:  4980charge 0 multiplicity 1
 O        -2.700675        -0.626760         1.547551
 C        -1.780141        -1.398834         0.809017
 C        -2.013809        -2.612160         0.092796
 C        -1.675153        -1.339766        -0.684584
 O        -0.383858        -0.940955        -1.056803
 C         0.316774        -0.518100         0.113532
 C         1.182668         0.671471         0.233042
 C         1.780756        -0.631123        -0.208956
 C        -0.426163        -1.129739         1.354978
 H        -3.621317        -0.602366         1.193136
 H        -1.441556        -3.555736         0.083307
 H        -3.090886        -2.820544         0.189393
 H        -2.433648        -0.822244        -1.327574
 H         1.307756         1.418769        -0.485021
 H         1.327627         0.929098         1.273338
 H         1.951839        -0.772269        -1.292508
 H         2.416299        -1.301002         0.551946
 H         0.010390        -2.104929         1.641598
 H        -0.490234        -0.377987         2.104874
