19
Iteration:  2259charge 0 multiplicity 1
 O        -3.023886        -1.047499         1.621042
 C        -1.868704        -1.363661         0.868720
 C        -1.707011        -2.626466         0.021062
 C        -1.719866        -1.196611        -0.596029
 O        -0.564005        -0.526934        -1.060348
 C         0.371251        -0.434831         0.138540
 C         1.556261         0.467312         0.012538
 C         1.783497        -1.060819        -0.201961
 C        -0.545740        -0.687816         1.372283
 H        -3.038623        -1.481433         2.469799
 H        -0.661032        -2.996694        -0.034977
 H        -2.463484        -3.287893        -0.490006
 H        -2.585232        -1.070439        -1.268925
 H         1.694875         1.240538        -0.871298
 H         1.923284         0.972955         0.882059
 H         1.845966        -1.320122        -1.332715
 H         2.463000        -1.600337         0.559301
 H         0.000403        -1.212029         2.183943
 H        -1.029304         0.193210         1.853165
