19
Iteration:  2017charge 0 multiplicity 1
 O        -2.909595        -0.985331         1.589128
 C        -1.786566        -1.324773         0.890085
 C        -1.884839        -2.602885        -0.010804
 C        -1.736852        -1.253965        -0.661359
 O        -0.556582        -0.577326        -1.021768
 C         0.373050        -0.564337         0.080901
 C         1.357156         0.515234         0.014469
 C         1.834574        -0.906167        -0.061939
 C        -0.407111        -0.804590         1.325342
 H        -3.117667        -1.739082         2.221046
 H        -1.031028        -3.199691        -0.160129
 H        -2.885131        -3.000637        -0.127360
 H        -2.523949        -0.808539        -1.189158
 H         1.358592         1.118119        -0.896907
 H         1.528794         1.010168         0.853781
 H         2.174024        -1.314231        -0.969940
 H         2.578323        -1.010033         0.641821
 H         0.120938        -1.463527         2.054616
 H        -0.551812         0.118125         1.875011
