19
Iteration:  4098charge 0 multiplicity 1
 O        -3.020341        -0.951129         1.465970
 C        -1.829425        -1.273694         0.868133
 C        -1.743710        -2.526679         0.147543
 C        -1.682148        -1.188381        -0.675877
 O        -0.472662        -0.651418        -1.080664
 C         0.336823        -0.597279         0.133515
 C         1.403457         0.555868         0.063028
 C         1.756039        -0.917066        -0.204562
 C        -0.468117        -0.897054         1.492201
 H        -3.279058        -1.596411         2.140958
 H        -0.903677        -3.153419         0.261839
 H        -2.709792        -2.950085        -0.076581
 H        -2.443018        -1.085318        -1.358640
 H         1.166273         1.274063        -0.754426
 H         1.752165         1.019166         0.894907
 H         1.906171        -1.301177        -1.282374
 H         2.520323        -1.435628         0.364562
 H         0.129815        -1.632835         1.998438
 H        -0.342415         0.047300         2.057244
