19
Iteration:  1803
 O        -2.964885        -1.260056         1.578877
 C        -1.807310        -1.286127         0.877561
 C        -1.455261        -2.549814         0.007817
 C        -1.749097        -1.138789        -0.628040
 O        -0.628610        -0.381416        -1.074213
 C         0.296650        -0.461585         0.139272
 C         1.628033         0.275778        -0.160130
 C         1.588016        -1.159497         0.006012
 C        -0.601000        -0.443075         1.415645
 H        -2.928428        -2.043865         2.181161
 H        -0.485071        -2.664364        -0.261481
 H        -2.135367        -3.320649        -0.099017
 H        -2.710483        -0.782442        -1.034854
 H         1.449623         0.559689        -1.130367
 H         2.116558         1.044434         0.461000
 H         1.682705        -1.806749        -0.790522
 H         1.949869        -1.662836         0.927521
 H        -0.150540        -0.999528         2.189446
 H        -0.911593         0.512517         1.884606
