19
Iteration:  1729
 O        -3.046084        -1.123435         1.606882
 C        -1.818776        -1.279577         0.907399
 C        -1.422667        -2.563727         0.003866
 C        -1.750022        -1.230551        -0.617464
 O        -0.552794        -0.483987        -0.997607
 C         0.283393        -0.402118         0.058662
 C         1.539858         0.342616        -0.004819
 C         1.591787        -1.142991        -0.169746
 C        -0.538724        -0.518333         1.367070
 H        -3.049702        -1.832264         2.247257
 H        -0.409188        -2.807006        -0.053085
 H        -2.034179        -3.385178        -0.183260
 H        -2.651834        -1.085117        -1.227277
 H         1.690585         0.913105        -0.889758
 H         1.729823         0.819079         0.981135
 H         1.618805        -1.448230        -1.173819
 H         1.963294        -2.007020         0.413521
 H         0.097724        -0.975867         2.190061
 H        -0.811696         0.480453         1.710738
