19
Iteration:  2588
 O        -2.997740        -1.215441         1.619125
 C        -1.830664        -1.323949         0.862848
 C        -1.478574        -2.527373         0.029200
 C        -1.727697        -1.207603        -0.669148
 O        -0.593651        -0.411657        -1.007693
 C         0.287882        -0.354255         0.119183
 C         1.657925         0.311282        -0.015498
 C         1.507963        -1.138897        -0.141540
 C        -0.567349        -0.542443         1.287764
 H        -2.768234        -1.565830         2.489112
 H        -0.403620        -2.669167         0.072307
 H        -2.168436        -3.336847        -0.079071
 H        -2.533971        -1.060366        -1.330490
 H         1.892598         1.020613        -0.789430
 H         2.067731         0.542746         0.981117
 H         1.482742        -1.660663        -1.089807
 H         1.953968        -1.709735         0.669111
 H        -0.070323        -1.055634         2.123408
 H        -1.006313         0.342802         1.794878
