19
Iteration:  4077charge 0 multiplicity 1
 O        -3.024791        -0.962618         1.565524
 C        -1.808254        -1.280429         0.803290
 C        -1.756247        -2.620443         0.043622
 C        -1.702791        -1.230110        -0.633917
 O        -0.516448        -0.582316        -1.024828
 C         0.364325        -0.542627         0.024502
 C         1.382291         0.503485         0.075547
 C         1.813719        -0.939053        -0.089925
 C        -0.463763        -0.795773         1.323695
 H        -2.992319        -1.478437         2.421878
 H        -0.859794        -3.131687         0.200773
 H        -2.736306        -3.049894         0.053355
 H        -2.520141        -0.944562        -1.177252
 H         1.518360         1.035415        -0.868182
 H         1.619363         0.994029         0.905673
 H         2.158779        -1.403818        -1.056002
 H         2.323925        -1.486874         0.677881
 H        -0.084877        -1.624116         1.937480
 H        -0.536126         0.084007         1.986480
