19
Iteration:  4675
 O        -2.863665        -0.779490         1.628633
 C        -1.818481        -1.366363         0.872305
 C        -2.010483        -2.626931        -0.185621
 C        -1.825213        -1.152216        -0.581715
 O        -0.443164        -0.984110        -1.015648
 C         0.367954        -0.609156         0.066101
 C         1.319540         0.727746        -0.013747
 C         1.884975        -0.719214         0.008153
 C        -0.393515        -0.957379         1.337232
 H        -3.065069        -1.426925         2.304208
 H        -1.108373        -3.221235        -0.286013
 H        -3.028834        -3.043831        -0.111038
 H        -2.587024        -0.707506        -1.145055
 H         1.391397         1.263676        -0.904526
 H         1.469900         1.203549         0.902177
 H         2.479061        -1.111963        -0.883694
 H         2.473181        -1.103785         0.887673
 H         0.212169        -1.734429         1.735968
 H        -0.437943        -0.052891         1.960497
