19
Iteration:  3409
 O        -2.723245        -0.594917         1.564700
 C        -1.768855        -1.359767         0.872558
 C        -2.090614        -2.568905         0.002480
 C        -1.768498        -1.247586        -0.676967
 O        -0.382182        -1.105681        -1.046638
 C         0.371495        -0.581463         0.063505
 C         1.077048         0.759932         0.213861
 C         1.873053        -0.522330        -0.090900
 C        -0.330174        -1.254961         1.263982
 H        -3.420787        -1.234482         1.684843
 H        -1.146262        -3.118016        -0.000478
 H        -3.002981        -3.100097        -0.268185
 H        -2.548470        -0.605332        -1.231074
 H         1.045437         1.521865        -0.537585
 H         0.981483         1.115441         1.260255
 H         2.074937        -0.810514        -1.080335
 H         2.603448        -0.981107         0.647861
 H         0.149534        -2.243723         1.539784
 H        -0.212488        -0.626627         2.214370
