19
Iteration:  4102
 O        -3.035152        -0.924941         1.470826
 C        -1.824322        -1.306705         0.875133
 C        -1.737610        -2.550416         0.114736
 C        -1.689096        -1.178620        -0.656203
 O        -0.462971        -0.672006        -1.050776
 C         0.367742        -0.593270         0.115716
 C         1.386155         0.545451         0.074309
 C         1.746990        -0.879192        -0.214874
 C        -0.457630        -0.871924         1.463509
 H        -3.407177        -1.598947         2.077340
 H        -0.780518        -3.098878         0.246446
 H        -2.749270        -2.950033        -0.001332
 H        -2.515056        -1.061694        -1.406809
 H         1.175247         1.136534        -0.753648
 H         1.919820         1.085622         0.938406
 H         1.725083        -1.362333        -1.166582
 H         2.545475        -1.455877         0.291971
 H         0.072181        -1.713999         2.008152
 H        -0.337827         0.001873         2.076002
