19
Iteration:  1933
 O        -3.081831        -0.953369         1.572267
 C        -1.850526        -1.420855         0.923774
 C        -1.841747        -2.635148        -0.045493
 C        -1.763537        -1.211273        -0.572550
 O        -0.490985        -0.599012        -0.980432
 C         0.438108        -0.548990         0.106310
 C         1.415744         0.573055        -0.028057
 C         1.938792        -0.893735        -0.206192
 C        -0.401011        -0.824216         1.385377
 H        -3.424995        -1.514001         2.264023
 H        -1.048720        -3.274835        -0.100893
 H        -2.780402        -3.103911        -0.134749
 H        -2.485161        -0.781069        -1.200367
 H         1.329249         1.189307        -0.967385
 H         1.592946         1.139796         0.830945
 H         2.027783        -1.367805        -1.179688
 H         2.491634        -1.228915         0.609130
 H         0.103318        -1.449628         2.076212
 H        -0.683140         0.173138         1.878219
