19
Iteration:  2254charge 0 multiplicity 1
 O        -3.001414        -1.038702         1.606054
 C        -1.857378        -1.385114         0.868784
 C        -1.641094        -2.619648        -0.003167
 C        -1.767039        -1.151812        -0.592824
 O        -0.577693        -0.509252        -1.080302
 C         0.373285        -0.461416         0.157631
 C         1.530808         0.445904         0.025412
 C         1.785688        -1.076448        -0.227031
 C        -0.580285        -0.688171         1.393832
 H        -2.942692        -1.473648         2.499531
 H        -0.604499        -2.888591         0.070088
 H        -2.379884        -3.318132        -0.298589
 H        -2.656759        -1.077377        -1.342152
 H         1.606955         1.028970        -0.794088
 H         1.892457         0.865238         1.001835
 H         1.907337        -1.505812        -1.163039
 H         2.569080        -1.438014         0.369815
 H        -0.043022        -1.038146         2.378850
 H        -1.032252         0.265891         1.693542
