19
Iteration:  2429charge 0 multiplicity 1
 O        -2.915749        -0.889373         1.569651
 C        -1.785297        -1.338504         0.832066
 C        -1.841502        -2.576557         0.011282
 C        -1.680628        -1.241975        -0.653540
 O        -0.450553        -0.692855        -1.045872
 C         0.344973        -0.475823         0.123762
 C         1.282101         0.636084         0.043709
 C         1.742916        -0.941952        -0.123269
 C        -0.409908        -0.968389         1.396748
 H        -2.981595        -1.492146         2.319544
 H        -1.282298        -3.519899         0.088850
 H        -2.903310        -2.639006        -0.030123
 H        -2.561945        -0.790668        -1.411080
 H         1.496585         1.261326        -0.874575
 H         1.548602         1.123376         0.915569
 H         1.825091        -1.140213        -1.173137
 H         2.545167        -1.170367         0.548402
 H         0.125191        -1.812056         1.845935
 H        -0.592778        -0.208527         2.120951
