19
Iteration:    89charge 0 multiplicity 1
 O        -3.108015        -1.404912         1.573662
 C        -1.753751        -1.321785         0.962900
 C        -1.444098        -2.510570         0.040726
 C        -1.770820        -1.229821        -0.605713
 O        -0.591981        -0.483623        -0.929779
 C         0.324945        -0.339805         0.098610
 C         1.612438         0.364362        -0.254114
 C         1.624801        -1.168680        -0.091451
 C        -0.551924        -0.279496         1.348051
 H        -3.095589        -1.883425         2.402752
 H        -0.496660        -3.026584        -0.181611
 H        -2.413132        -3.164246         0.219527
 H        -2.590888        -1.173977        -1.317003
 H         1.662668         0.858516        -1.266230
 H         2.102740         1.107914         0.410990
 H         1.634988        -1.730993        -0.959478
 H         2.041767        -1.642665         0.905228
 H         0.120357        -0.559398         2.237793
 H        -1.085307         0.668316         1.561842
