19
Iteration:   679charge 0 multiplicity 1
 O        -2.917766        -0.904901         1.555034
 C        -1.761577        -1.412882         0.899407
 C        -1.721977        -2.682369         0.076463
 C        -1.668734        -1.326425        -0.631369
 O        -0.643860        -0.547557        -1.074050
 C         0.258557        -0.394991         0.024161
 C         1.457291         0.566410         0.020056
 C         1.673665        -0.892847        -0.084520
 C        -0.376773        -0.891034         1.327151
 H        -3.129475        -1.312148         2.400863
 H        -0.791742        -3.306196        -0.053267
 H        -2.685203        -3.181496        -0.039504
 H        -2.611316        -1.019090        -1.096040
 H         1.737794         1.250403        -0.720903
 H         1.606212         0.991977         0.922936
 H         1.938448        -1.400009        -0.966965
 H         2.082393        -1.462261         0.766877
 H         0.205114        -1.542984         1.895650
 H        -0.509226         0.047357         1.912952
