19
Iteration:  2125
 O        -3.028639        -1.286568         1.643708
 C        -1.802688        -1.254569         0.897275
 C        -1.563626        -2.526211        -0.038934
 C        -1.795017        -1.275071        -0.661025
 O        -0.637660        -0.454942        -1.079032
 C         0.294402        -0.341001         0.029400
 C         1.713101         0.344852         0.000664
 C         1.628308        -1.127851        -0.009962
 C        -0.512374        -0.456633         1.363989
 H        -2.929219        -1.852220         2.433076
 H        -0.660899        -3.030866        -0.319581
 H        -2.378701        -3.199772        -0.012231
 H        -2.681703        -0.930594        -1.206588
 H         1.992011         0.775180        -0.945392
 H         1.967376         0.830714         0.848289
 H         1.780264        -1.335716        -1.069487
 H         1.881454        -1.768335         0.735717
 H         0.116700        -1.047052         2.099160
 H        -0.794057         0.473961         1.726270
