19
Iteration:  4259
 O        -3.119614        -0.950344         1.480556
 C        -1.853221        -1.324714         0.899149
 C        -1.574366        -2.576524         0.084347
 C        -1.684270        -1.263358        -0.630374
 O        -0.547277        -0.549813        -0.946078
 C         0.399072        -0.471405         0.151308
 C         1.554980         0.466397        -0.079068
 C         1.678138        -0.976447        -0.176540
 C        -0.518986        -0.817218         1.384622
 H        -3.368979        -1.648700         2.077701
 H        -0.732614        -3.240996         0.136351
 H        -2.487192        -3.002473        -0.249031
 H        -2.562925        -1.117480        -1.107900
 H         1.532492         1.091347        -0.982506
 H         1.819922         1.090850         0.825229
 H         1.956401        -1.341048        -1.128113
 H         2.281057        -1.305917         0.599360
 H         0.010251        -1.588536         1.903240
 H        -0.613395         0.041165         2.074188
