19
Iteration:  1911
 O        -2.940113        -0.939469         1.473321
 C        -1.757112        -1.326500         0.851516
 C        -1.689196        -2.574963        -0.020871
 C        -1.761645        -1.200121        -0.587795
 O        -0.516320        -0.682729        -0.983496
 C         0.329130        -0.519413         0.197764
 C         1.419528         0.568774        -0.031242
 C         1.657407        -0.936404        -0.201543
 C        -0.468586        -0.851458         1.483530
 H        -3.099522        -1.442506         2.319711
 H        -0.781020        -3.021265        -0.065235
 H        -2.501653        -3.198359        -0.224230
 H        -2.576478        -0.783390        -1.083341
 H         1.372125         1.184291        -0.950623
 H         1.938581         0.969875         0.799985
 H         1.703226        -1.190378        -1.222104
 H         2.327594        -1.385573         0.476625
 H        -0.030186        -1.708531         1.900106
 H        -0.619292         0.023367         2.216278
