19
Iteration:  1774
 O        -3.018772        -1.265817         1.553376
 C        -1.833514        -1.400854         0.901416
 C        -1.446925        -2.578139         0.048452
 C        -1.649346        -1.200530        -0.638714
 O        -0.668289        -0.262319        -0.934901
 C         0.300791        -0.375796         0.015943
 C         1.576991         0.293274        -0.103147
 C         1.519655        -1.239750        -0.042111
 C        -0.509603        -0.377849         1.311328
 H        -2.961381        -1.689748         2.409382
 H        -0.490909        -3.101426         0.147773
 H        -2.333444        -3.253177        -0.030651
 H        -2.417552        -1.009152        -1.273282
 H         1.942153         0.446667        -1.136942
 H         1.914971         0.901558         0.738860
 H         1.822961        -1.786151        -0.936579
 H         2.005852        -1.779235         0.795977
 H         0.131034        -0.853477         2.139152
 H        -0.942540         0.549972         1.633048
