19
Iteration:   552charge 0 multiplicity 1
 O        -2.849437        -1.300945         1.866692
 C        -1.781127        -1.291087         0.803725
 C        -1.362915        -2.505776         0.027531
 C        -1.734697        -1.208880        -0.723997
 O        -0.648982        -0.373141        -1.054021
 C         0.228255        -0.454582         0.091783
 C         1.604557         0.319411        -0.081250
 C         1.485377        -1.194977        -0.049465
 C        -0.633015        -0.418424         1.281675
 H        -3.678522        -1.286439         1.337714
 H        -0.343779        -2.824620        -0.046695
 H        -2.002738        -3.299359        -0.097430
 H        -2.490065        -1.259459        -1.516557
 H         1.686796         0.808673        -1.079371
 H         2.135338         0.773965         0.753554
 H         1.673451        -1.819371        -0.823996
 H         1.782906        -1.588795         0.929776
 H        -0.199685        -0.771267         2.261210
 H        -1.080310         0.515804         1.391954
