19
Iteration:  3270charge 0 multiplicity 1
 O        -2.932410        -0.736019         1.572292
 C        -1.786755        -1.279049         0.903080
 C        -1.890840        -2.520491         0.060154
 C        -1.740493        -1.270314        -0.698395
 O        -0.426744        -0.891759        -1.014710
 C         0.389323        -0.617230         0.060389
 C         1.169194         0.661419         0.157133
 C         1.883793        -0.691592        -0.158448
 C        -0.372357        -1.125562         1.254411
 H        -3.289671        -1.422372         2.138607
 H        -1.017196        -3.215790         0.000488
 H        -2.879240        -3.000898        -0.052476
 H        -2.440747        -0.727622        -1.382942
 H         1.155303         1.479662        -0.619799
 H         1.312024         1.058595         1.162442
 H         2.088502        -0.879053        -1.189950
 H         2.382150        -1.298570         0.667599
 H         0.024996        -2.038727         1.653497
 H        -0.221474        -0.386550         2.061112
