19
Iteration:  3283charge 0 multiplicity 1
 O        -2.882010        -0.740479         1.636120
 C        -1.854694        -1.313327         0.814920
 C        -1.985375        -2.619235        -0.018691
 C        -1.662732        -1.170178        -0.607314
 O        -0.362895        -0.896867        -1.155839
 C         0.383999        -0.613798         0.072295
 C         1.159132         0.609496         0.120700
 C         1.874904        -0.672673        -0.123307
 C        -0.383489        -1.043667         1.356282
 H        -3.159323        -1.492852         2.237512
 H        -1.154265        -3.364818         0.275846
 H        -3.053843        -2.988486        -0.116459
 H        -2.606550        -0.794883        -1.120800
 H         0.914867         1.313204        -0.688495
 H         1.191951         1.063238         1.188261
 H         2.342975        -0.859283        -1.076817
 H         2.638273        -1.068747         0.697740
 H         0.026696        -2.001946         1.669215
 H        -0.408285        -0.316461         2.163927
