19
Iteration:   430charge 0 multiplicity 1
 O        -2.952144        -1.046195         1.577183
 C        -1.752237        -1.330580         0.940092
 C        -1.727168        -2.622800         0.108252
 C        -1.739681        -1.270306        -0.561216
 O        -0.568074        -0.739617        -1.046500
 C         0.352657        -0.535175         0.043443
 C         1.435274         0.633990        -0.041719
 C         1.755454        -0.912251        -0.168189
 C        -0.460189        -0.624391         1.346944
 H        -3.520086        -1.811861         1.488760
 H        -0.866882        -3.358188         0.070858
 H        -2.777079        -3.114594         0.069929
 H        -2.628674        -0.750907        -0.966510
 H         1.250803         1.259507        -0.863086
 H         1.833685         1.092410         0.813446
 H         2.064891        -1.297954        -1.191931
 H         2.258294        -1.368745         0.610673
 H         0.271054        -1.060055         2.080560
 H        -0.743854         0.327156         1.688949
