19
Iteration:  1024charge 0 multiplicity 1
 O        -2.834363        -0.765767         1.547873
 C        -1.778201        -1.346647         0.872375
 C        -1.942538        -2.634449         0.119017
 C        -1.689635        -1.192584        -0.620772
 O        -0.411272        -0.743253        -1.099412
 C         0.352726        -0.651219         0.093907
 C         1.136583         0.662575         0.025860
 C         1.856730        -0.664451        -0.155860
 C        -0.354765        -1.194772         1.362883
 H        -3.357385        -1.386152         2.062201
 H        -1.235745        -3.466759         0.175794
 H        -2.970830        -2.930771        -0.150135
 H        -2.625960        -0.819494        -1.134151
 H         0.893588         1.300189        -0.838054
 H         1.180944         1.297019         0.952992
 H         2.264872        -0.869292        -1.064433
 H         2.448914        -1.003321         0.670175
 H         0.037739        -1.977842         2.024957
 H        -0.477800        -0.330223         2.052298
