19
Iteration:  3803
 O        -2.960125        -0.905537         1.575660
 C        -1.842646        -1.313175         0.855152
 C        -1.698938        -2.491745         0.028833
 C        -1.698251        -1.150114        -0.599927
 O        -0.459370        -0.738390        -1.122580
 C         0.371013        -0.620099         0.083267
 C         1.235477         0.618025         0.073228
 C         1.812780        -0.924858        -0.096259
 C        -0.437023        -0.921217         1.347526
 H        -3.181669        -1.733447         2.121055
 H        -0.920301        -3.221508         0.226604
 H        -2.708214        -2.966067        -0.137926
 H        -2.503809        -0.907559        -1.158518
 H         1.106034         1.412820        -0.710802
 H         1.559798         1.043004         1.001808
 H         1.797102        -1.268623        -1.195896
 H         2.362937        -1.377724         0.661575
 H        -0.074557        -1.682733         2.032843
 H        -0.443838         0.054554         1.904221
