19
Iteration:   997charge 0 multiplicity 1
 O        -2.896774        -0.756580         1.659559
 C        -1.817497        -1.224573         0.835342
 C        -1.848691        -2.641035        -0.064292
 C        -1.769862        -1.237725        -0.674078
 O        -0.356899        -0.933537        -0.997518
 C         0.337810        -0.613527         0.158019
 C         1.159062         0.643428         0.096014
 C         1.803157        -0.667189        -0.246078
 C        -0.346823        -1.051064         1.367503
 H        -3.419621        -1.453275         2.035557
 H        -0.811652        -3.086040        -0.102587
 H        -2.750537        -3.209083        -0.196032
 H        -2.565478        -0.614867        -1.071315
 H         1.014552         1.421782        -0.732794
 H         1.329655         1.065158         1.124263
 H         2.001125        -0.759786        -1.421420
 H         2.620651        -1.082171         0.437356
 H        -0.068441        -2.023866         1.783821
 H        -0.304743        -0.308933         2.185470
