19
Iteration:  4956charge 0 multiplicity 1
 O        -2.749060        -0.632369         1.633569
 C        -1.846896        -1.332453         0.867009
 C        -2.026113        -2.688607        -0.155634
 C        -1.830018        -1.320468        -0.560848
 O        -0.462813        -1.018585        -1.089395
 C         0.393721        -0.625645         0.057725
 C         1.252792         0.741758         0.173537
 C         1.879121        -0.634617        -0.085262
 C        -0.346447        -1.024032         1.360980
 H        -3.615868        -0.522627         1.262767
 H        -1.167433        -3.333299         0.138736
 H        -2.920634        -3.356280        -0.392201
 H        -2.577875        -0.703858        -1.214638
 H         1.306738         1.372500        -0.701243
 H         1.350303         1.149389         1.246919
 H         2.174341        -0.880399        -1.128811
 H         2.642990        -1.147541         0.794384
 H         0.021985        -1.965212         1.709605
 H        -0.344042        -0.184629         1.992336
