19
Iteration:  1858
 O        -2.980856        -1.062176         1.652451
 C        -1.832535        -1.381654         0.828980
 C        -1.675503        -2.609280         0.004017
 C        -1.843739        -1.230327        -0.630793
 O        -0.663885        -0.493897        -1.057643
 C         0.365762        -0.428719         0.032351
 C         1.627202         0.432830         0.017311
 C         1.880820        -1.030073        -0.053101
 C        -0.555819        -0.682975         1.308178
 H        -3.075423        -1.767733         2.347696
 H        -0.751951        -2.994141         0.010706
 H        -2.511975        -3.225206         0.077961
 H        -2.612116        -1.027423        -1.304146
 H         1.901829         1.087141        -0.817633
 H         1.782547         1.072279         0.865970
 H         2.091302        -1.201208        -1.073298
 H         2.198194        -1.684172         0.748964
 H        -0.074912        -1.068365         2.184178
 H        -1.045132         0.280542         1.657852
