19
Iteration:  2222
 O        -2.977278        -1.170569         1.511146
 C        -1.758923        -1.243291         0.883253
 C        -1.507302        -2.545393         0.032158
 C        -1.717032        -1.192824        -0.593273
 O        -0.614117        -0.419267        -0.983979
 C         0.291577        -0.459891         0.075121
 C         1.435306         0.379965         0.034806
 C         1.571492        -1.244830        -0.165669
 C        -0.461154        -0.531780         1.386189
 H        -2.832175        -1.651424         2.346647
 H        -0.527041        -2.994384        -0.087390
 H        -2.304140        -3.197580        -0.204032
 H        -2.571687        -1.109815        -1.385793
 H         1.624711         0.785198        -0.890015
 H         1.586148         0.955219         0.955351
 H         1.797524        -1.482666        -1.170459
 H         2.088866        -1.782099         0.581059
 H         0.168778        -1.103029         2.203850
 H        -0.638111         0.490110         1.687275
