19
Iteration:  1146charge 0 multiplicity 1
 O        -2.806405        -0.761152         1.586888
 C        -1.782562        -1.342553         0.869205
 C        -2.116412        -2.560867        -0.084876
 C        -1.750721        -1.251962        -0.590341
 O        -0.384345        -1.075086        -0.969030
 C         0.386383        -0.525419         0.088226
 C         1.185615         0.817585         0.018093
 C         1.834362        -0.575611        -0.128882
 C        -0.304892        -1.137585         1.370332
 H        -3.423070        -1.479097         1.654613
 H        -1.345542        -3.395396        -0.183300
 H        -3.246078        -2.836175         0.040746
 H        -2.616258        -0.732568        -1.114225
 H         1.126346         1.502174        -0.798094
 H         1.468609         1.313739         0.877258
 H         2.127210        -1.048992        -1.147143
 H         2.359886        -0.817217         0.759945
 H         0.207323        -2.110325         1.489359
 H         0.167400        -0.693010         2.338366
