19
Iteration:  1801
 O        -2.986830        -1.261572         1.586420
 C        -1.812143        -1.293181         0.885531
 C        -1.456651        -2.542435         0.012732
 C        -1.740416        -1.146275        -0.611349
 O        -0.641703        -0.365196        -1.071131
 C         0.300843        -0.454560         0.126841
 C         1.660267         0.264187        -0.175976
 C         1.601720        -1.139076         0.017804
 C        -0.598229        -0.451744         1.400388
 H        -2.940934        -2.009797         2.187906
 H        -0.380777        -2.703965        -0.294619
 H        -2.122657        -3.398722        -0.173441
 H        -2.760420        -0.806322        -1.056559
 H         1.437430         0.593350        -1.160807
 H         2.127928         0.992883         0.514052
 H         1.701521        -1.882462        -0.782475
 H         1.879197        -1.695474         0.905061
 H        -0.179911        -1.023660         2.200654
 H        -0.987620         0.536674         1.844893
