19
Iteration:  3718charge 0 multiplicity 1
 O        -2.810791        -0.835080         1.637010
 C        -1.823784        -1.258219         0.796232
 C        -1.900713        -2.520312         0.012113
 C        -1.765549        -1.153706        -0.664699
 O        -0.418563        -0.936008        -1.119505
 C         0.304377        -0.561476         0.073931
 C         1.210226         0.616828         0.042367
 C         1.828726        -0.707268         0.047108
 C        -0.408062        -1.061117         1.338345
 H        -3.092834        -1.614409         2.093611
 H        -0.892698        -2.924395        -0.101971
 H        -2.765356        -3.213842        -0.157095
 H        -2.574703        -0.699276        -1.186362
 H         1.187478         1.257639        -0.846782
 H         1.216221         1.060225         0.985641
 H         2.127898        -1.072665        -1.009470
 H         2.576606        -1.008803         0.740623
 H        -0.014621        -2.031981         1.705819
 H        -0.251352        -0.262997         2.051487
