19
Iteration:  2298charge 0 multiplicity 1
 O        -2.889640        -0.986205         1.510473
 C        -1.751243        -1.332401         0.870069
 C        -1.789321        -2.565626         0.089278
 C        -1.771541        -1.144286        -0.597746
 O        -0.558118        -0.579967        -1.112365
 C         0.340440        -0.493145         0.078718
 C         1.349983         0.516663        -0.055599
 C         1.790681        -0.976413        -0.005270
 C        -0.428147        -0.852632         1.412170
 H        -3.074081        -1.842899         1.970827
 H        -0.860865        -3.025321        -0.128111
 H        -2.607771        -3.131705        -0.271448
 H        -2.787737        -0.655530        -1.008405
 H         1.250676         0.979449        -0.954751
 H         1.586108         1.010050         0.886148
 H         2.079555        -1.399039        -0.898583
 H         2.256153        -1.528690         0.735579
 H         0.120600        -1.688801         1.963495
 H        -0.501923        -0.066896         2.133572
