19
Iteration:  3790
 O        -3.016324        -0.888422         1.539161
 C        -1.786661        -1.263904         0.887753
 C        -1.812808        -2.586900         0.016880
 C        -1.711642        -1.204943        -0.660998
 O        -0.434962        -0.796210        -1.069438
 C         0.334456        -0.508094         0.127202
 C         1.335824         0.578951         0.093221
 C         1.746706        -0.833158        -0.196475
 C        -0.389684        -0.924439         1.429816
 H        -3.172659        -1.443464         2.290738
 H        -0.824385        -3.095970        -0.055001
 H        -2.636955        -3.264270        -0.188378
 H        -2.482487        -0.830925        -1.241848
 H         1.350394         1.310374        -0.801517
 H         1.418089         0.949195         1.111153
 H         2.054062        -1.074711        -1.194491
 H         2.458455        -1.334947         0.459319
 H         0.155809        -1.790079         1.785197
 H        -0.509758        -0.149604         2.249102
