19
Iteration:  4166charge 0 multiplicity 1
 O        -2.880494        -1.005951         1.588602
 C        -1.815289        -1.283984         0.829700
 C        -1.903124        -2.544993         0.036583
 C        -1.768335        -1.168243        -0.692309
 O        -0.469623        -0.724365        -1.055852
 C         0.362791        -0.522704         0.036027
 C         1.328476         0.598160        -0.020653
 C         1.769961        -0.942212         0.028655
 C        -0.391118        -0.822415         1.338190
 H        -2.690536        -1.442373         2.475801
 H        -1.029537        -3.246591         0.089385
 H        -2.849909        -3.013886        -0.246483
 H        -2.484737        -0.893674        -1.563191
 H         1.506353         1.192960        -0.836824
 H         1.354752         1.253183         0.909725
 H         2.361368        -1.433504        -0.797577
 H         2.258985        -1.278144         1.066162
 H        -0.057614        -1.752547         1.894481
 H        -0.581633        -0.053128         2.104967
