19
Iteration:  2642
 O        -2.968670        -1.276089         1.523663
 C        -1.715776        -1.283780         0.862989
 C        -1.397510        -2.521183        -0.054841
 C        -1.790651        -1.073331        -0.535582
 O        -0.659043        -0.453807        -1.075206
 C         0.262837        -0.385022         0.159100
 C         1.608635         0.266999        -0.102759
 C         1.533584        -1.251803        -0.039770
 C        -0.563452        -0.384818         1.422867
 H        -2.988960        -2.064829         2.097804
 H        -0.382224        -2.868317        -0.115549
 H        -2.227549        -3.240422        -0.096331
 H        -2.791033        -0.911019        -0.984098
 H         1.790227         0.643273        -1.049570
 H         2.136565         0.873497         0.735970
 H         1.696692        -1.748649        -0.994386
 H         1.908280        -1.605120         0.955448
 H        -0.117897        -0.918142         2.283872
 H        -1.052176         0.528412         1.744667
