19
Iteration:   307charge 0 multiplicity 1
 O        -2.874643        -0.960776         1.701601
 C        -1.823549        -1.237411         0.869561
 C        -1.851767        -2.576758         0.117497
 C        -1.720596        -1.178002        -0.662878
 O        -0.383777        -0.914063        -1.098850
 C         0.365259        -0.542099         0.123572
 C         1.198957         0.648703         0.018215
 C         1.783719        -0.791215        -0.237883
 C        -0.408439        -0.847476         1.386634
 H        -3.584027        -1.554414         1.450365
 H        -0.917733        -3.339395         0.015848
 H        -2.765442        -3.213031        -0.137390
 H        -2.448694        -1.014561        -1.450963
 H         1.079209         1.382672        -0.773476
 H         1.547767         1.112701         0.975092
 H         1.886627        -1.071002        -1.294983
 H         2.508908        -1.267367         0.522517
 H        -0.020282        -1.516748         2.141708
 H        -0.480398         0.175525         1.839216
