19
Iteration:  1139
 O        -2.867817        -0.773171         1.592234
 C        -1.726127        -1.376688         0.943696
 C        -2.068371        -2.571865        -0.102373
 C        -1.775763        -1.208308        -0.591677
 O        -0.374771        -1.061616        -0.942122
 C         0.384258        -0.557265         0.094135
 C         1.177143         0.763312        -0.047814
 C         1.809034        -0.549010        -0.144557
 C        -0.286835        -1.107878         1.356232
 H        -3.591026        -1.385681         1.734855
 H        -1.445953        -3.412173        -0.205600
 H        -3.165760        -2.701248        -0.112844
 H        -2.349183        -0.572950        -1.193184
 H         1.263711         1.516616        -0.850381
 H         1.413014         1.111541         0.986859
 H         2.261066        -0.876328        -1.110812
 H         2.425498        -0.899903         0.769866
 H         0.181341        -2.153020         1.451389
 H        -0.077670        -0.573909         2.341935
