19
Iteration:    64charge 0 multiplicity 1
 O        -2.948450        -1.347073         1.487411
 C        -1.667062        -1.307894         0.966454
 C        -1.361974        -2.555020         0.200813
 C        -1.791157        -1.160668        -0.525699
 O        -0.635888        -0.444934        -1.122059
 C         0.241298        -0.385709         0.066090
 C         1.567456         0.301266        -0.097987
 C         1.513637        -1.208004        -0.103260
 C        -0.641198        -0.333658         1.327881
 H        -2.989209        -1.859503         2.319152
 H        -0.369912        -2.711273        -0.110850
 H        -1.936859        -3.352460         0.232741
 H        -2.786048        -0.864404        -0.845247
 H         1.712380         0.825307        -1.028664
 H         2.004026         0.866279         0.712418
 H         1.674457        -1.557605        -1.127598
 H         2.122198        -1.645811         0.634769
 H        -0.101559        -0.564038         2.183757
 H        -1.132468         0.737683         1.469290
