19
Iteration:  1062charge 0 multiplicity 1
 O        -2.877293        -0.801022         1.619122
 C        -1.755688        -1.427760         0.882626
 C        -2.013445        -2.617328        -0.000614
 C        -1.748613        -1.183278        -0.601869
 O        -0.459538        -0.989988        -1.132378
 C         0.324285        -0.523873         0.019111
 C         1.331560         0.788994         0.028261
 C         1.807705        -0.593086        -0.036052
 C        -0.400245        -1.142221         1.353122
 H        -2.639085        -1.116204         2.531751
 H        -1.249691        -3.366102        -0.209177
 H        -3.054625        -2.964201        -0.106557
 H        -2.455548        -0.557203        -1.058771
 H         1.422332         1.363145        -0.895037
 H         1.408178         1.214782         1.002895
 H         2.411369        -0.952279        -0.995152
 H         2.238223        -0.957095         0.915672
 H         0.284475        -1.966533         1.582546
 H        -0.338573        -0.257687         2.005281
