19
Iteration:   179
 O        -2.975306        -1.011509         1.620314
 C        -1.773325        -1.282998         0.846584
 C        -1.799758        -2.684770         0.176743
 C        -1.757245        -1.324903        -0.647406
 O        -0.493583        -0.639057        -1.050413
 C         0.369336        -0.543322         0.096125
 C         1.381283         0.561017         0.070154
 C         1.830547        -0.837231        -0.267231
 C        -0.476863        -0.676901         1.308964
 H        -3.261944        -1.932217         1.833227
 H        -0.789504        -3.252387         0.190635
 H        -2.778554        -3.245443         0.292346
 H        -2.603449        -0.927306        -1.187057
 H         1.421823         1.236845        -0.757066
 H         1.745691         0.934016         1.032668
 H         1.846346        -1.118197        -1.388140
 H         2.552638        -1.399812         0.283780
 H         0.095569        -1.239759         2.154845
 H        -0.827183         0.234651         1.720970
