19
Iteration:  1679charge 0 multiplicity 1
 O        -2.970851        -1.042951         1.596109
 C        -1.740458        -1.339592         0.883985
 C        -1.739567        -2.610226        -0.073882
 C        -1.733233        -1.218477        -0.629915
 O        -0.602824        -0.589142        -1.026399
 C         0.371089        -0.422743         0.126117
 C         1.463022         0.561426        -0.098312
 C         1.679174        -1.025439        -0.024955
 C        -0.437606        -0.699739         1.396540
 H        -2.969252        -1.699845         2.329121
 H        -0.883922        -3.304421        -0.143892
 H        -2.701808        -3.239067        -0.112346
 H        -2.561245        -0.986175        -1.194389
 H         1.546058         0.723779        -1.157983
 H         1.884069         1.250032         0.653282
 H         2.081542        -1.424489        -0.918703
 H         2.163905        -1.556198         0.828580
 H         0.101964        -1.422723         2.020520
 H        -0.650515         0.247325         1.926936
