19
Iteration:  3472charge 0 multiplicity 1
 O        -2.742866        -0.649528         1.630122
 C        -1.699324        -1.313394         0.821698
 C        -2.169280        -2.483607        -0.157738
 C        -1.736436        -1.221136        -0.663745
 O        -0.316832        -1.160627        -0.984402
 C         0.363311        -0.651688         0.074800
 C         0.913945         0.758969         0.106139
 C         1.889361        -0.482252        -0.085834
 C        -0.264379        -1.273785         1.420919
 H        -2.785743        -1.145489         2.431408
 H        -1.598065        -3.257328        -0.621240
 H        -3.159808        -2.705496        -0.418083
 H        -2.416049        -0.640470        -1.361873
 H         0.726218         1.274209        -0.773691
 H         1.080555         1.409982         0.947365
 H         2.435935        -0.797854        -0.862166
 H         2.473474        -0.864575         0.793123
 H        -0.031924        -2.289843         1.403520
 H        -0.137094        -0.615855         2.240980
