19
Iteration:  3861
 O        -2.915310        -1.118685         1.629646
 C        -1.799609        -1.415273         0.881395
 C        -1.794182        -2.570581        -0.017391
 C        -1.715617        -1.135817        -0.643063
 O        -0.471791        -0.640536        -1.066603
 C         0.275049        -0.412012         0.044694
 C         1.620505         0.503508        -0.107170
 C         1.605865        -0.958919         0.036223
 C        -0.500876        -0.645733         1.376476
 H        -3.228246        -1.962918         1.934120
 H        -0.867590        -3.190471        -0.177699
 H        -2.690968        -3.181756        -0.098664
 H        -2.718474        -0.552270        -1.051027
 H         1.502483         0.992430        -1.044746
 H         1.865807         1.116353         0.765089
 H         2.012212        -1.563227        -0.768499
 H         2.101958        -1.557712         0.926984
 H         0.060757        -1.172611         2.196609
 H        -0.947629         0.248854         1.755034
