19
Iteration:  4982
 O        -2.702405        -0.641551         1.536967
 C        -1.777967        -1.378009         0.815391
 C        -2.019481        -2.609582         0.094898
 C        -1.681283        -1.340560        -0.686700
 O        -0.373770        -0.923387        -1.064756
 C         0.314924        -0.531330         0.117557
 C         1.158517         0.664072         0.236782
 C         1.783140        -0.633344        -0.201351
 C        -0.417916        -1.130270         1.356756
 H        -3.593890        -0.623094         1.202513
 H        -1.448807        -3.535975         0.204253
 H        -3.072033        -2.746466         0.216496
 H        -2.366937        -0.849405        -1.305215
 H         1.324295         1.433965        -0.532981
 H         1.293407         0.924429         1.215207
 H         2.022532        -0.842344        -1.273447
 H         2.440615        -1.269722         0.397230
 H        -0.028310        -2.162095         1.623175
 H        -0.469393        -0.373380         2.199400
