19
Iteration:  3587
 O        -2.761938        -0.635567         1.604833
 C        -1.765942        -1.392324         0.841565
 C        -2.159792        -2.601294         0.005993
 C        -1.697758        -1.295688        -0.664363
 O        -0.361356        -0.930793        -1.113034
 C         0.459441        -0.615440        -0.017112
 C         1.015615         0.685964         0.190175
 C         1.939488        -0.595863        -0.049771
 C        -0.322192        -1.163395         1.334915
 H        -3.242873        -1.213424         2.176900
 H        -1.584313        -3.553741        -0.142027
 H        -3.232080        -2.802606        -0.181923
 H        -2.446448        -0.869725        -1.193943
 H         0.752397         1.344654        -0.599122
 H         0.736609         1.276257         1.067427
 H         2.335704        -0.519079        -1.026200
 H         2.551764        -0.932822         0.879487
 H         0.228753        -2.074075         1.628155
 H        -0.548064        -0.450357         2.122385
