19
Iteration:   334
 O        -2.922693        -0.830925         1.581906
 C        -1.752247        -1.419983         0.979507
 C        -1.856665        -2.676842         0.011916
 C        -1.815679        -1.272063        -0.574963
 O        -0.547411        -0.724859        -1.015903
 C         0.403759        -0.513917         0.097761
 C         1.237964         0.648960        -0.185255
 C         1.943599        -0.801593        -0.069661
 C        -0.358746        -0.902583         1.406002
 H        -3.599738        -1.389292         1.220446
 H        -0.989881        -3.222179        -0.153745
 H        -2.636887        -3.397321        -0.078478
 H        -2.713019        -0.763841        -1.024291
 H         1.169090         1.164469        -1.142454
 H         1.322340         1.299455         0.671845
 H         2.328184        -1.250407        -1.018738
 H         2.486426        -0.969748         0.767918
 H         0.146734        -1.816845         1.905532
 H        -0.426314        -0.093943         2.120375
