19
Iteration:  1135
 O        -2.887386        -0.777766         1.599275
 C        -1.735024        -1.392804         0.949890
 C        -2.054747        -2.553947        -0.080576
 C        -1.739398        -1.176208        -0.585534
 O        -0.380641        -1.059640        -0.955352
 C         0.363699        -0.564430         0.100181
 C         1.171361         0.754112        -0.049001
 C         1.837158        -0.562991        -0.138457
 C        -0.266535        -1.112993         1.348049
 H        -3.624542        -1.399569         1.797292
 H        -1.416401        -3.497827        -0.256905
 H        -3.180534        -2.767051        -0.180969
 H        -2.327117        -0.456428        -1.216631
 H         1.217723         1.433112        -0.866221
 H         1.288022         1.138538         0.909199
 H         2.285009        -0.845371        -1.142787
 H         2.470399        -0.907645         0.637790
 H         0.159407        -2.123086         1.473355
 H        -0.305901        -0.461575         2.316340
