19
Iteration:  3783charge 0 multiplicity 1
 O        -3.007365        -0.863100         1.498106
 C        -1.839830        -1.317736         0.850048
 C        -1.846802        -2.595750         0.004656
 C        -1.743476        -1.254983        -0.638443
 O        -0.437256        -0.802503        -1.006126
 C         0.312479        -0.477721         0.123665
 C         1.386692         0.576073         0.117236
 C         1.777956        -0.768627        -0.236073
 C        -0.362396        -0.926327         1.445294
 H        -2.984050        -1.400784         2.311390
 H        -0.966059        -3.153592        -0.254755
 H        -2.681193        -3.351383         0.074080
 H        -2.520896        -0.793217        -1.248864
 H         1.508149         1.131234        -0.784076
 H         1.648185         1.059473         1.037864
 H         2.105956        -0.961004        -1.336988
 H         2.314738        -1.235507         0.544949
 H         0.108024        -1.846410         1.828098
 H        -0.451932        -0.206177         2.258895
