19
Iteration:   935charge 0 multiplicity 1
 O        -2.772521        -0.911734         1.661680
 C        -1.797596        -1.372313         0.852389
 C        -1.994047        -2.530676        -0.115206
 C        -1.818836        -1.163583        -0.654560
 O        -0.487440        -0.897181        -1.030846
 C         0.434453        -0.585510         0.115081
 C         1.159466         0.649283        -0.085139
 C         1.886672        -0.656078         0.058951
 C        -0.375165        -1.011348         1.322046
 H        -2.914826        -1.290554         2.527336
 H        -1.238816        -3.283484        -0.175883
 H        -2.938740        -3.000778        -0.309535
 H        -2.547649        -0.569515        -1.122371
 H         1.229670         1.058870        -1.165806
 H         1.304444         1.550650         0.594183
 H         2.479690        -0.936481        -0.832359
 H         2.393076        -0.900596         0.930659
 H         0.001204        -1.964308         1.738108
 H        -0.358090        -0.276523         2.101525
