19
Iteration:  4711
 O        -2.813549        -0.917478         1.615340
 C        -1.770145        -1.287131         0.832613
 C        -2.023613        -2.478645        -0.064460
 C        -1.703278        -1.150321        -0.616880
 O        -0.356376        -0.903425        -0.993136
 C         0.379889        -0.621356         0.094922
 C         1.141340         0.623438        -0.084102
 C         1.836583        -0.783538         0.001926
 C        -0.363024        -0.952210         1.389720
 H        -3.527629        -1.535767         1.720011
 H        -1.605520        -3.510691        -0.045356
 H        -3.122731        -2.615981        -0.081550
 H        -2.407513        -0.666973        -1.444154
 H         1.108445         1.187860        -1.106474
 H         1.339253         1.429937         0.659571
 H         2.179226        -1.084715        -1.010013
 H         2.420189        -0.979872         0.911648
 H         0.017675        -1.753335         1.941610
 H        -0.454055        -0.136709         2.160498
