19
Iteration:  4742
 O        -2.966681        -0.813929         1.685261
 C        -1.909624        -1.324502         0.911694
 C        -1.898437        -2.477447        -0.029400
 C        -1.761429        -1.136747        -0.636372
 O        -0.385615        -1.023705        -1.078137
 C         0.418553        -0.589298         0.027101
 C         1.290117         0.671740         0.030247
 C         1.995105        -0.661354        -0.117353
 C        -0.485385        -1.078000         1.361505
 H        -3.706787        -1.435198         1.875045
 H        -1.005663        -3.150527         0.157224
 H        -2.884531        -2.999117        -0.127062
 H        -2.532971        -0.624704        -1.382193
 H         1.319553         1.157372        -1.007955
 H         1.497978         0.991534         1.001997
 H         2.319334        -0.830697        -1.216304
 H         2.743289        -0.944834         0.685133
 H        -0.116601        -1.982704         1.896508
 H        -0.592496        -0.227114         2.138039
