19
Iteration:  4430
 O        -3.015756        -1.085676         1.484175
 C        -1.776900        -1.342054         0.844508
 C        -1.502266        -2.589260         0.124648
 C        -1.691152        -1.222454        -0.655403
 O        -0.605109        -0.428003        -1.015145
 C         0.294355        -0.539823         0.109820
 C         1.505925         0.366431         0.085897
 C         1.585167        -1.105153        -0.193562
 C        -0.529851        -0.542012         1.329340
 H        -2.938861        -1.360067         2.434482
 H        -0.510070        -3.048610         0.173398
 H        -2.332633        -3.294753         0.051075
 H        -2.554096        -1.060508        -1.219725
 H         1.591256         0.937594        -0.808409
 H         1.877035         0.794580         1.110937
 H         1.887035        -1.463388        -1.127086
 H         2.072871        -1.688098         0.564773
 H         0.076142        -0.959779         2.203300
 H        -0.681172         0.467631         1.663985
