19
Iteration:  1434
 O        -2.875008        -0.811969         1.666384
 C        -1.764901        -1.351649         0.850633
 C        -2.063102        -2.522878         0.028125
 C        -1.653892        -1.249257        -0.641809
 O        -0.420689        -0.971022        -1.109292
 C         0.386647        -0.560199         0.094832
 C         1.220077         0.831591         0.024042
 C         1.801379        -0.692688        -0.052332
 C        -0.306022        -1.103463         1.294567
 H        -3.408931        -1.577679         2.018365
 H        -1.462827        -3.340332         0.031686
 H        -3.106079        -2.629945        -0.164216
 H        -2.336738        -0.766312        -1.449592
 H         1.223891         1.429996        -0.916085
 H         1.351824         1.271219         1.096170
 H         2.165538        -0.945568        -1.032345
 H         2.394773        -1.164977         0.759373
 H        -0.024746        -2.104521         1.688800
 H        -0.311872        -0.454455         2.179054
