19
Iteration:  2871charge 0 multiplicity 1
 O        -2.935088        -0.979174         1.585169
 C        -1.751659        -1.314372         0.817205
 C        -1.810994        -2.619130         0.026155
 C        -1.735158        -1.212259        -0.631784
 O        -0.505283        -0.656957        -1.121118
 C         0.368938        -0.484595         0.142873
 C         1.418553         0.564523         0.054093
 C         1.749917        -0.965395        -0.120338
 C        -0.531536        -0.794400         1.427784
 H        -2.707604        -1.553750         2.316321
 H        -0.910427        -3.180527        -0.095547
 H        -2.673768        -3.043276        -0.346064
 H        -2.635903        -0.654355        -1.218203
 H         1.290292         1.121011        -0.915196
 H         1.817714         1.176390         0.866072
 H         1.966691        -1.420100        -1.068690
 H         2.367818        -1.349387         0.628231
 H        -0.058744        -1.658934         2.066456
 H        -0.721894         0.059353         2.049427
