19
Iteration:  2733
 O        -2.979523        -0.966087         1.491038
 C        -1.709135        -1.350757         0.939195
 C        -1.663069        -2.551896         0.037911
 C        -1.748485        -1.241548        -0.649896
 O        -0.585085        -0.566491        -1.106317
 C         0.305405        -0.476289         0.058214
 C         1.432031         0.480642         0.073774
 C         1.682840        -1.019443        -0.130395
 C        -0.419592        -0.780827         1.439013
 H        -3.164557        -1.467777         2.336856
 H        -0.661071        -3.008017        -0.107424
 H        -2.551723        -3.123421        -0.067508
 H        -2.831161        -0.981686        -1.010084
 H         1.698210         1.116008        -0.847470
 H         1.588382         0.848578         1.032139
 H         1.910799        -1.278655        -1.193780
 H         2.185988        -1.554498         0.608394
 H         0.061143        -1.493595         2.097312
 H        -0.578541         0.160023         2.076045
