19
Iteration:  3202charge 0 multiplicity 1
 O        -2.868031        -0.867134         1.627105
 C        -1.819218        -1.352365         0.844674
 C        -1.940998        -2.558878        -0.076986
 C        -1.732370        -1.235603        -0.687438
 O        -0.439051        -0.785094        -1.064730
 C         0.389407        -0.586723         0.143703
 C         1.275756         0.583015         0.016937
 C         1.908150        -0.747000        -0.110221
 C        -0.474304        -0.938320         1.393915
 H        -2.935725        -1.482048         2.426619
 H        -1.007075        -3.140545        -0.189312
 H        -2.960446        -2.990044         0.041120
 H        -2.608422        -0.665069        -0.978279
 H         1.157726         1.124511        -0.927613
 H         1.407198         1.362358         0.795982
 H         2.146167        -1.292451        -1.070365
 H         2.391571        -1.082210         0.777648
 H        -0.037916        -1.780556         1.937934
 H        -0.723487        -0.179929         2.189145
