19
Iteration:  4039charge 0 multiplicity 1
 O        -2.882472        -1.020651         1.597697
 C        -1.746156        -1.350276         0.879206
 C        -1.696851        -2.642236        -0.147205
 C        -1.751500        -1.164188        -0.610939
 O        -0.553076        -0.615330        -1.058978
 C         0.251568        -0.442149         0.069995
 C         1.450404         0.431894        -0.019823
 C         1.747389        -1.059327         0.063922
 C        -0.558324        -0.585256         1.330234
 H        -2.879117        -1.713112         2.264965
 H        -0.787014        -3.321802        -0.293450
 H        -2.597550        -3.290022        -0.009386
 H        -2.691286        -0.567592        -1.009927
 H         1.718399         0.918265        -0.947819
 H         1.781593         1.162146         0.928484
 H         1.930542        -1.553092        -0.858166
 H         1.976251        -1.542850         1.035624
 H         0.156840        -1.161366         1.955880
 H        -0.813612         0.395581         1.825912
