19
Iteration:  3393charge 0 multiplicity 1
 O        -2.748734        -0.642380         1.598621
 C        -1.804200        -1.372397         0.791386
 C        -2.034545        -2.596951        -0.051344
 C        -1.629503        -1.171383        -0.624155
 O        -0.356743        -1.076657        -1.067694
 C         0.341144        -0.676296         0.078573
 C         1.079396         0.734002         0.183539
 C         1.837947        -0.569301        -0.148508
 C        -0.386829        -1.174791         1.381322
 H        -3.442897        -1.173137         1.939300
 H        -1.427662        -3.520713        -0.116237
 H        -3.153576        -2.720257        -0.020124
 H        -2.345510        -0.699801        -1.193056
 H         0.927293         1.508378        -0.641546
 H         1.352840         1.258811         1.102587
 H         2.177084        -0.287534        -1.250527
 H         2.359770        -0.884105         0.700716
 H        -0.035008        -2.129833         1.742744
 H        -0.363776        -0.521650         2.210683
