19
Iteration:  3637
 O        -2.917621        -0.757917         1.550708
 C        -1.796497        -1.356999         0.855003
 C        -1.993420        -2.514236        -0.177036
 C        -1.644249        -1.114010        -0.576848
 O        -0.366498        -1.041604        -0.955819
 C         0.368685        -0.578599         0.142100
 C         1.066186         0.684992         0.012997
 C         1.855640        -0.645233        -0.141143
 C        -0.312644        -1.114180         1.426763
 H        -3.091368        -1.300092         2.360454
 H        -1.183841        -3.233223        -0.090976
 H        -2.947409        -3.042803        -0.338945
 H        -2.620535        -0.626312        -1.065107
 H         1.289663         1.299710        -0.913864
 H         1.287753         1.327035         0.956370
 H         2.006695        -0.987052        -1.200409
 H         2.469330        -0.977650         0.673617
 H         0.132393        -2.111795         1.527220
 H        -0.130213        -0.490465         2.372820
