19
Iteration:   686charge 0 multiplicity 1
 O        -2.907761        -0.904924         1.532223
 C        -1.745964        -1.384450         0.917013
 C        -1.754207        -2.731512         0.077261
 C        -1.755478        -1.347349        -0.607585
 O        -0.592079        -0.542748        -1.035648
 C         0.258656        -0.367882         0.014379
 C         1.418326         0.558533        -0.015435
 C         1.706279        -0.913386        -0.082689
 C        -0.347123        -0.835012         1.319205
 H        -3.090221        -1.614905         2.158971
 H        -0.859560        -3.363274         0.079376
 H        -2.841495        -2.943425        -0.219414
 H        -2.577479        -1.019456        -1.234244
 H         1.691895         1.254678        -0.817031
 H         1.609088         1.015816         1.081352
 H         2.001065        -1.316851        -1.064471
 H         2.118124        -1.359227         0.926473
 H         0.290018        -1.657733         1.814696
 H        -0.526328        -0.161910         2.159063
