19
Iteration:  1769charge 0 multiplicity 1
 O        -3.010391        -1.264777         1.542840
 C        -1.768674        -1.353519         0.874714
 C        -1.469623        -2.593569         0.077214
 C        -1.642411        -1.228867        -0.623813
 O        -0.662094        -0.251626        -0.971438
 C         0.268604        -0.397751         0.060438
 C         1.581088         0.286494        -0.092542
 C         1.527538        -1.245769        -0.049324
 C        -0.502662        -0.380274         1.333395
 H        -2.927570        -1.667254         2.445650
 H        -0.520595        -3.155949         0.078173
 H        -2.257612        -3.304616        -0.126018
 H        -2.539916        -1.029724        -1.322716
 H         1.776886         0.635377        -1.105823
 H         1.892791         0.877026         0.763146
 H         1.698215        -1.626403        -1.070805
 H         1.780066        -1.845014         0.826618
 H         0.042681        -0.859516         2.100356
 H        -0.931925         0.616175         1.609689
