19
Iteration:   794charge 0 multiplicity 1
 O        -2.897997        -0.864241         1.681694
 C        -1.809224        -1.402622         0.889627
 C        -1.970541        -2.622855        -0.091682
 C        -1.808433        -1.259417        -0.607881
 O        -0.517555        -0.727800        -1.064489
 C         0.431727        -0.571103         0.032768
 C         1.254864         0.636049        -0.069935
 C         1.892113        -0.723110         0.050615
 C        -0.340856        -0.969122         1.307652
 H        -3.078016        -1.477464         2.418700
 H        -1.063636        -3.264525        -0.288640
 H        -2.886749        -3.186710        -0.086504
 H        -2.435589        -0.849103        -1.392045
 H         1.445645         1.013570        -1.113002
 H         1.282688         1.583082         0.714228
 H         2.529168        -0.918369        -0.802817
 H         2.444778        -1.089984         0.983402
 H         0.172113        -1.877826         1.856752
 H        -0.374139        -0.104744         2.002348
