19
Iteration:  2418
 O        -2.850705        -0.817306         1.595486
 C        -1.775079        -1.264087         0.824326
 C        -1.831085        -2.658239        -0.074921
 C        -1.681330        -1.241958        -0.668787
 O        -0.476647        -0.636585        -0.999403
 C         0.329581        -0.575285         0.161599
 C         1.233525         0.579592         0.013277
 C         1.769956        -0.889831        -0.099625
 C        -0.427794        -0.967778         1.382159
 H        -3.096495        -1.504934         2.210453
 H        -1.051483        -3.420622         0.094444
 H        -2.835308        -3.088374        -0.150451
 H        -2.644697        -0.828871        -1.360790
 H         0.947652         1.144434        -0.943402
 H         1.639922         1.023604         0.838500
 H         2.055810        -1.269825        -1.079537
 H         2.471578        -1.096747         0.680196
 H        -0.000990        -1.856366         1.885440
 H        -0.469920        -0.211257         2.132768
