19
Iteration:   883charge 0 multiplicity 1
 O        -2.873170        -0.869517         1.590064
 C        -1.758979        -1.299300         0.839511
 C        -2.014251        -2.620759         0.056107
 C        -1.717348        -1.217689        -0.598755
 O        -0.481946        -0.851276        -1.068203
 C         0.403593        -0.565988         0.095558
 C         1.217866         0.656775         0.077067
 C         1.932112        -0.654202        -0.187380
 C        -0.339948        -1.024910         1.355534
 H        -3.374584        -1.655870         1.863872
 H        -1.340891        -3.467296        -0.008501
 H        -3.097731        -2.921163        -0.017784
 H        -2.506168        -0.829911        -1.186988
 H         1.091991         1.340676        -0.816325
 H         1.241640         1.082806         1.101644
 H         2.154912        -0.775305        -1.264934
 H         2.493065        -1.085844         0.580998
 H         0.053156        -1.880695         1.992356
 H        -0.513010        -0.153421         2.054417
