19
Iteration:  3958
 O        -2.930782        -1.133709         1.429667
 C        -1.670727        -1.349486         0.892667
 C        -1.334810        -2.639747         0.175610
 C        -1.712271        -1.196304        -0.600225
 O        -0.635108        -0.283006        -1.017742
 C         0.228047        -0.300147         0.147575
 C         1.528474         0.249621        -0.009572
 C         1.427311        -1.286109        -0.131627
 C        -0.612043        -0.470074         1.342488
 H        -3.012250        -1.902063         1.978372
 H        -0.384339        -3.193630         0.093601
 H        -2.171224        -3.276948        -0.075273
 H        -2.585487        -1.074790        -1.376896
 H         1.619860         0.785482        -0.980631
 H         1.907706         0.714115         0.826893
 H         1.514810        -1.807189        -1.075236
 H         2.065822        -1.826655         0.649527
 H         0.067303        -0.898516         2.145201
 H        -1.034400         0.479196         1.721990
