19
Iteration:    41charge 0 multiplicity 1
 O        -2.908330        -1.183039         1.651241
 C        -1.764580        -1.259228         0.865330
 C        -1.323467        -2.605522         0.074117
 C        -1.628823        -1.362287        -0.646400
 O        -0.727443        -0.370077        -1.012672
 C         0.212921        -0.390823         0.006419
 C         1.504593         0.352551        -0.070863
 C         1.446734        -1.174765        -0.061555
 C        -0.535706        -0.416369         1.302011
 H        -2.874870        -1.902036         2.324162
 H        -0.383401        -3.045677         0.351583
 H        -2.102642        -3.275385        -0.172349
 H        -2.431924        -1.455830        -1.402399
 H         1.865812         0.859572        -0.939996
 H         1.771211         0.849396         0.857978
 H         1.677286        -1.684781        -1.075739
 H         1.719179        -1.644314         0.817413
 H        -0.041970        -0.848996         2.139330
 H        -0.789036         0.693940         1.555066
