19
Iteration:   412
 O        -2.921137        -1.018769         1.681148
 C        -1.737637        -1.345126         0.883899
 C        -1.768912        -2.633191         0.119216
 C        -1.822020        -1.146033        -0.563612
 O        -0.502209        -0.852418        -1.130863
 C         0.357752        -0.546880         0.025343
 C         1.314603         0.525317         0.050862
 C         1.887717        -0.822710        -0.198455
 C        -0.473971        -0.612511         1.316252
 H        -3.656333        -1.602012         1.469996
 H        -0.882529        -3.032792        -0.131299
 H        -2.456907        -3.400733         0.250666
 H        -2.702305        -0.847732        -1.150184
 H         1.506887         1.240930        -0.757373
 H         1.327257         0.922738         1.142033
 H         2.027951        -1.068027        -1.226743
 H         2.590143        -1.272818         0.500146
 H        -0.071676        -1.074550         2.255792
 H        -0.808040         0.449152         1.543850
