19
Iteration:   831
 O        -2.890212        -0.822621         1.554794
 C        -1.764805        -1.309243         0.875375
 C        -1.837760        -2.609404         0.013429
 C        -1.709135        -1.220578        -0.672855
 O        -0.428091        -0.796769        -1.057590
 C         0.319709        -0.599046         0.112384
 C         1.160156         0.714382         0.104254
 C         1.755154        -0.789164        -0.182547
 C        -0.335540        -1.059269         1.395190
 H        -3.007818        -0.944360         2.537933
 H        -0.966113        -3.272037        -0.036025
 H        -2.830157        -3.164453        -0.002780
 H        -2.513555        -0.875572        -1.336128
 H         1.064718         1.271871        -0.781586
 H         1.416312         1.116472         0.951910
 H         1.842368        -0.929759        -1.271614
 H         2.371558        -1.164653         0.580340
 H         0.161818        -1.922868         1.732932
 H        -0.309280        -0.327539         2.224737
