19
Iteration:   689charge 0 multiplicity 1
 O        -2.902298        -0.912305         1.527274
 C        -1.732283        -1.373710         0.901116
 C        -1.781474        -2.726262         0.073845
 C        -1.789407        -1.339666        -0.584211
 O        -0.573211        -0.545928        -1.025261
 C         0.282109        -0.368973         0.021329
 C         1.403435         0.578523        -0.012513
 C         1.726634        -0.930588        -0.088811
 C        -0.346792        -0.815570         1.335822
 H        -3.102106        -1.723318         2.032162
 H        -0.911399        -3.481988         0.157965
 H        -2.803846        -2.993967        -0.238506
 H        -2.584467        -1.058570        -1.286761
 H         1.589449         1.159796        -0.836286
 H         1.588789         0.963896         0.920612
 H         2.039788        -1.232260        -1.041303
 H         2.136460        -1.328660         0.905692
 H         0.235921        -1.607851         1.655937
 H        -0.542022        -0.229696         2.237833
