19
Iteration:  3105charge 0 multiplicity 1
 O        -2.983943        -1.005396         1.544002
 C        -1.750269        -1.307350         0.889743
 C        -1.608119        -2.640279         0.044109
 C        -1.715849        -1.166323        -0.664214
 O        -0.574413        -0.537794        -1.036574
 C         0.291422        -0.472746         0.123360
 C         1.472808         0.463514        -0.028437
 C         1.661387        -1.015451        -0.163493
 C        -0.500531        -0.761319         1.404048
 H        -2.919691        -1.418288         2.452664
 H        -0.648298        -3.215484         0.292252
 H        -2.497733        -3.237598        -0.245656
 H        -2.610783        -1.096528        -1.393069
 H         1.522812         1.208035        -0.763783
 H         1.867481         0.957705         0.951206
 H         1.718456        -1.484182        -1.133175
 H         2.125449        -1.537722         0.726288
 H         0.029643        -1.439682         2.030458
 H        -0.681801         0.170546         1.998256
