19
Iteration:  1487
 O        -2.842752        -0.851319         1.669257
 C        -1.766105        -1.361236         0.852947
 C        -1.970362        -2.542591        -0.109855
 C        -1.755125        -1.153499        -0.602987
 O        -0.366437        -0.887380        -1.095783
 C         0.357586        -0.603714         0.132857
 C         1.104814         0.622290        -0.035178
 C         1.872755        -0.752880        -0.054867
 C        -0.318453        -0.953587         1.390939
 H        -3.473045        -1.524332         2.011065
 H        -1.177348        -3.194595        -0.242163
 H        -2.988155        -2.919572        -0.138424
 H        -2.516817        -0.552409        -1.079778
 H         0.977572         1.083315        -1.022534
 H         1.239269         1.276648         0.889188
 H         2.193786        -1.063064        -1.016095
 H         2.414580        -1.108985         0.844540
 H         0.070388        -1.838430         2.034763
 H        -0.495604         0.007763         1.959004
