19
Iteration:  3688
 O        -2.869537        -0.871614         1.694008
 C        -1.794225        -1.293185         0.846993
 C        -2.061282        -2.512334        -0.087082
 C        -1.693189        -1.206669        -0.644568
 O        -0.405895        -0.964121        -1.036276
 C         0.389235        -0.596317         0.036254
 C         1.235129         0.719501         0.016478
 C         1.870445        -0.687629         0.032812
 C        -0.346751        -1.016676         1.314647
 H        -3.378003        -1.682882         1.995715
 H        -1.493101        -3.415002        -0.249957
 H        -3.078675        -2.774044        -0.381349
 H        -2.580200        -0.791172        -1.287588
 H         1.080014         1.232085        -0.929882
 H         1.097729         1.233342         0.932777
 H         2.342682        -0.846280        -1.017867
 H         2.488855        -1.065146         0.777831
 H         0.132652        -1.863875         1.875247
 H        -0.200635        -0.130531         1.882122
