19
Iteration:  4938
 O        -2.837129        -0.722088         1.723219
 C        -1.783180        -1.316950         0.837634
 C        -1.968516        -2.594106        -0.022830
 C        -1.725304        -1.188509        -0.642389
 O        -0.429533        -0.943725        -1.076569
 C         0.376331        -0.639433         0.061562
 C         1.132110         0.618827        -0.003513
 C         1.931311        -0.672229        -0.009621
 C        -0.392918        -1.084320         1.329221
 H        -3.572050        -0.637749         1.111164
 H        -1.161898        -3.279759        -0.265188
 H        -2.995364        -2.909936        -0.119128
 H        -2.476712        -0.723561        -1.272700
 H         1.089173         1.159575        -0.902993
 H         1.081580         1.215559         0.891082
 H         2.583319        -0.901075        -0.806050
 H         2.494514        -1.073555         0.813379
 H         0.093981        -1.987717         1.809223
 H        -0.512593        -0.285393         2.102741
