19
Iteration:  3258charge 0 multiplicity 1
 O        -2.909828        -0.758457         1.482691
 C        -1.822851        -1.270417         0.820128
 C        -1.911031        -2.575194         0.095004
 C        -1.772360        -1.192127        -0.653015
 O        -0.491642        -0.893320        -1.102613
 C         0.373903        -0.606751         0.124638
 C         1.256410         0.700331         0.188237
 C         1.786963        -0.702676        -0.159818
 C        -0.245968        -1.139170         1.411509
 H        -3.274569        -1.353228         2.153330
 H        -1.026648        -3.177310        -0.027760
 H        -2.845456        -3.113367        -0.064118
 H        -2.608666        -1.034149        -1.344609
 H         1.354626         1.304105        -0.757648
 H         1.430143         1.129771         1.118567
 H         2.142784        -0.842096        -1.189153
 H         2.586131        -1.109406         0.484353
 H         0.134573        -2.101695         1.650305
 H        -0.263884        -0.430011         2.273420
