19
Iteration:  1300
 O        -2.629550        -0.707490         1.680514
 C        -1.675728        -1.262408         0.882775
 C        -2.113715        -2.453800        -0.077712
 C        -1.729560        -1.135635        -0.769307
 O        -0.346906        -1.207066        -1.046571
 C         0.390242        -0.657823         0.021243
 C         0.788700         0.730553         0.081664
 C         1.877732        -0.517769        -0.056370
 C        -0.220477        -1.230443         1.424070
 H        -3.466366        -1.242864         1.696452
 H        -1.579343        -3.467831        -0.173672
 H        -3.203872        -2.675151        -0.254507
 H        -2.353866        -0.512302        -1.294615
 H         0.644030         1.218126        -0.849347
 H         0.588156         1.319363         0.960672
 H         2.440841        -0.672621        -0.972167
 H         2.300652        -0.848141         0.966629
 H        -0.052370        -2.222161         1.682510
 H        -0.289960        -0.535049         2.322016
