19
Iteration:  4776charge 0 multiplicity 1
 O        -2.780015        -0.750988         1.434105
 C        -1.707467        -1.392551         0.866309
 C        -2.003234        -2.563884         0.043374
 C        -1.723839        -1.267781        -0.700870
 O        -0.446148        -0.828476        -1.103801
 C         0.339677        -0.550514         0.156279
 C         1.161949         0.609831         0.133499
 C         1.771752        -0.749783        -0.092690
 C        -0.339634        -1.049519         1.402622
 H        -2.994789        -1.335206         2.228408
 H        -1.355138        -3.453574         0.158648
 H        -3.083159        -2.735687         0.241196
 H        -2.657038        -0.737251        -1.204757
 H         1.069316         1.357632        -0.682665
 H         1.472280         1.278093         0.988776
 H         2.031831        -1.081548        -1.081299
 H         2.553406        -1.080260         0.644226
 H         0.153790        -1.865602         1.939816
 H        -0.367737        -0.098407         2.070825
