19
Iteration:   688
 O        -2.904270        -0.909658         1.528635
 C        -1.736610        -1.377016         0.908171
 C        -1.772456        -2.728986         0.075086
 C        -1.780605        -1.343530        -0.591976
 O        -0.578298        -0.544383        -1.027894
 C         0.273099        -0.367638         0.018035
 C         1.408429         0.572527        -0.015759
 C         1.719945        -0.925271        -0.088969
 C        -0.345326        -0.821233         1.330180
 H        -3.089792        -1.685623         2.064811
 H        -0.880696        -3.449557         0.134593
 H        -2.827494        -2.967542        -0.240836
 H        -2.579880        -1.044241        -1.272737
 H         1.620411         1.178591        -0.812351
 H         1.595083         0.978967         0.980870
 H         2.021749        -1.253630        -1.040866
 H         2.135296        -1.342720         0.936088
 H         0.250424        -1.618170         1.705595
 H        -0.537181        -0.217680         2.213091
