19
Iteration:  2269charge 0 multiplicity 1
 O        -3.051423        -1.047933         1.612663
 C        -1.847831        -1.344074         0.878627
 C        -1.726674        -2.612921         0.010229
 C        -1.691674        -1.254195        -0.621497
 O        -0.526763        -0.544271        -0.990653
 C         0.347776        -0.431565         0.074241
 C         1.582320         0.500964        -0.012389
 C         1.727534        -0.968875        -0.153329
 C        -0.500397        -0.710455         1.346980
 H        -3.006562        -1.645634         2.360564
 H        -0.887298        -3.336390         0.065815
 H        -2.716038        -3.107724        -0.256604
 H        -2.568451        -0.876309        -1.240686
 H         1.630476         1.116275        -0.989853
 H         1.908224         0.926380         0.909049
 H         1.862729        -1.307732        -1.246380
 H         2.090236        -1.738558         0.593535
 H         0.048014        -1.505120         1.949262
 H        -0.620111         0.220264         1.932071
