19
Iteration:   958charge 0 multiplicity 1
 O        -2.934921        -0.931050         1.590540
 C        -1.738192        -1.429162         0.914760
 C        -2.100296        -2.548264        -0.017545
 C        -1.715827        -1.197682        -0.572610
 O        -0.369263        -0.891802        -1.124574
 C         0.415911        -0.536772         0.011549
 C         1.196118         0.665929         0.003796
 C         1.873721        -0.655748        -0.056779
 C        -0.329290        -0.987517         1.363214
 H        -2.736827        -1.472887         2.406271
 H        -1.712103        -3.490810        -0.204365
 H        -3.199954        -2.761128        -0.045359
 H        -2.421717        -0.460596        -0.927052
 H         1.124218         1.425814        -0.838250
 H         1.237978         1.287409         0.924919
 H         2.303362        -1.003216        -0.960037
 H         2.424107        -0.913089         0.765606
 H         0.283334        -1.682507         1.988168
 H        -0.467839        -0.094174         1.971902
