19
Iteration:  1907
 O        -2.908207        -0.953030         1.468804
 C        -1.763025        -1.360360         0.878885
 C        -1.672280        -2.527964         0.031670
 C        -1.752667        -1.198222        -0.624398
 O        -0.505383        -0.656881        -1.021318
 C         0.326178        -0.541870         0.183781
 C         1.395397         0.550670        -0.026833
 C         1.625695        -0.952222        -0.190551
 C        -0.479406        -0.828396         1.494296
 H        -3.116511        -1.355024         2.312919
 H        -0.640586        -3.070461        -0.091454
 H        -2.549869        -3.170884        -0.299366
 H        -2.643156        -0.740847        -1.147715
 H         1.530569         1.126031        -0.897052
 H         1.811858         1.209142         0.820620
 H         1.567609        -1.163494        -1.261013
 H         2.355916        -1.477995         0.486238
 H        -0.053191        -1.783085         1.973653
 H        -0.617905        -0.103061         2.281185
