19
Iteration:  3660
 O        -2.830377        -0.829979         1.558870
 C        -1.764700        -1.458229         0.851961
 C        -2.118124        -2.528260        -0.043888
 C        -1.715282        -1.118445        -0.681314
 O        -0.372312        -0.950849        -1.052254
 C         0.438878        -0.623221         0.188460
 C         1.196293         0.745392        -0.024300
 C         1.938219        -0.664064        -0.101620
 C        -0.421703        -1.100182         1.424202
 H        -3.341413        -1.454546         2.125218
 H        -1.503671        -3.383298        -0.356717
 H        -3.169136        -2.860095         0.090828
 H        -2.529577        -0.469191        -1.039745
 H         0.616229         1.293478        -0.798537
 H         1.372127         1.488760         0.865798
 H         2.339924        -0.952868        -1.035199
 H         2.508022        -0.827739         0.879202
 H         0.024675        -1.844705         2.068072
 H        -0.514991        -0.133352         2.029503
