19
Iteration:   805
 O        -2.842552        -0.864557         1.609849
 C        -1.814323        -1.346776         0.875152
 C        -1.851008        -2.639831        -0.017630
 C        -1.783147        -1.146755        -0.637837
 O        -0.544163        -0.752941        -1.072112
 C         0.350895        -0.595382         0.053372
 C         1.228055         0.637559        -0.071494
 C         1.944623        -0.719482         0.007659
 C        -0.422968        -1.051909         1.336637
 H        -2.851276        -1.248983         2.528618
 H        -0.960012        -3.340408         0.057811
 H        -2.825570        -3.036761        -0.201096
 H        -2.651244        -0.773911        -1.207953
 H         1.207219         1.149459        -1.093692
 H         1.278853         1.328375         0.943466
 H         2.427134        -1.138673        -0.886829
 H         2.358151        -0.967920         1.039442
 H         0.105074        -2.004250         1.791611
 H        -0.539331        -0.325991         2.169086
