19
Iteration:  1792charge 0 multiplicity 1
 O        -3.069580        -1.263959         1.609685
 C        -1.778913        -1.327832         0.891809
 C        -1.425970        -2.513030        -0.016981
 C        -1.767465        -1.159388        -0.566470
 O        -0.671528        -0.330650        -1.010333
 C         0.301408        -0.369911         0.083791
 C         1.711829         0.293885        -0.226150
 C         1.623824        -1.212021         0.026336
 C        -0.594932        -0.510852         1.345310
 H        -3.048130        -1.929383         2.303590
 H        -0.446105        -2.869608         0.007664
 H        -2.073432        -3.295190        -0.252473
 H        -2.664342        -1.086352        -1.227563
 H         1.787006         0.708570        -1.186589
 H         2.149629         0.839358         0.623852
 H         1.812735        -1.848259        -0.781377
 H         1.849304        -1.569743         1.055890
 H        -0.108842        -0.903390         2.202071
 H        -1.060208         0.475818         1.515205
