19
Iteration:  1940
 O        -3.064721        -0.974264         1.580489
 C        -1.828037        -1.438063         0.909976
 C        -1.890082        -2.590169         0.007847
 C        -1.731840        -1.210770        -0.574121
 O        -0.500456        -0.584468        -1.015415
 C         0.443499        -0.607466         0.084094
 C         1.410077         0.587878        -0.060164
 C         1.938110        -0.865868        -0.153049
 C        -0.443120        -0.800118         1.391361
 H        -3.345876        -1.621447         2.243199
 H        -1.043783        -3.346015        -0.023180
 H        -2.873653        -3.007892        -0.345919
 H        -2.580473        -0.805383        -1.136246
 H         1.359284         1.020885        -0.991132
 H         1.658687         1.039221         0.915980
 H         2.208911        -1.092654        -1.148582
 H         2.607249        -1.389542         0.605276
 H         0.109066        -1.517302         2.051145
 H        -0.654673         0.167048         1.819993
