19
Iteration:  2160charge 0 multiplicity 1
 O        -2.922074        -1.279365         1.622403
 C        -1.719154        -1.278685         0.911813
 C        -1.439088        -2.469971        -0.022475
 C        -1.653102        -1.143008        -0.653500
 O        -0.547432        -0.335486        -1.005927
 C         0.223748        -0.481527         0.152280
 C         1.439793         0.247773        -0.134938
 C         1.561221        -1.270454        -0.043844
 C        -0.648327        -0.418102         1.359663
 H        -3.050166        -2.159649         2.029737
 H        -0.488048        -2.896017        -0.278997
 H        -2.329639        -3.024778        -0.196560
 H        -2.670368        -0.872856        -1.234767
 H         1.324674         0.708864        -1.039504
 H         1.985767         0.946908         0.568533
 H         1.761737        -2.001673        -0.805335
 H         2.105682        -1.665135         0.839981
 H        -0.195194        -0.636410         2.303850
 H        -0.927349         0.620553         1.427898
