19
Iteration:  3829
 O        -2.891495        -0.965859         1.677642
 C        -1.845647        -1.363295         0.798674
 C        -1.825443        -2.588479        -0.037407
 C        -1.776357        -1.233105        -0.708980
 O        -0.552654        -0.612086        -1.046920
 C         0.330257        -0.552127         0.074680
 C         1.418095         0.503011        -0.071188
 C         1.896023        -0.934850         0.051833
 C        -0.442119        -0.726567         1.394682
 H        -3.334284        -1.847290         1.857543
 H        -0.884309        -3.190786        -0.055766
 H        -2.671620        -3.248723        -0.193074
 H        -2.653825        -0.750382        -1.372482
 H         1.362808         1.123652        -0.934800
 H         1.333801         1.093902         0.855091
 H         2.207078        -1.118288        -0.952030
 H         2.441452        -1.376104         0.975485
 H         0.034673        -1.475223         2.080914
 H        -0.598672         0.193643         1.922702
