19
Iteration:  1697charge 0 multiplicity 1
 O        -2.932055        -1.126202         1.542780
 C        -1.821641        -1.345802         0.842376
 C        -1.699124        -2.633752         0.154480
 C        -1.795651        -1.206688        -0.647618
 O        -0.571707        -0.368652        -0.997596
 C         0.302407        -0.445966         0.039685
 C         1.517616         0.396566        -0.102573
 C         1.836042        -1.037145        -0.051808
 C        -0.522521        -0.675022         1.329517
 H        -3.010150        -1.864891         2.193763
 H        -0.829974        -3.214993         0.126183
 H        -2.593565        -3.187462         0.107593
 H        -2.709627        -0.874287        -1.167501
 H         1.526546         0.927287        -1.030988
 H         1.688928         1.004540         0.820682
 H         1.973925        -1.561698        -0.962213
 H         2.206964        -1.499817         0.873025
 H         0.089513        -1.269124         2.087593
 H        -0.901800         0.250257         1.757224
