19
Iteration:  1826charge 0 multiplicity 1
 O        -2.912719        -1.237235         1.577646
 C        -1.732686        -1.267939         0.892291
 C        -1.563232        -2.460821        -0.024254
 C        -1.701965        -1.124055        -0.634488
 O        -0.531401        -0.551985        -0.965609
 C         0.272656        -0.439378         0.085411
 C         1.451275         0.393734        -0.131261
 C         1.536795        -1.163420        -0.017129
 C        -0.490627        -0.508489         1.348472
 H        -2.893858        -2.030598         2.104660
 H        -0.727103        -2.991603        -0.145839
 H        -2.518380        -2.882614        -0.071058
 H        -2.441193        -1.012979        -1.347176
 H         1.514918         1.065633        -0.980126
 H         1.675023         0.732241         0.855471
 H         1.552194        -1.748632        -0.885989
 H         1.948280        -1.728936         0.837078
 H        -0.072134        -0.907610         2.250220
 H        -1.008526         0.389850         1.663359
