19
Iteration:  1847
 O        -2.986082        -1.138566         1.665411
 C        -1.787637        -1.358406         0.883664
 C        -1.674101        -2.626876        -0.029813
 C        -1.787484        -1.181703        -0.648998
 O        -0.553954        -0.508686        -1.134481
 C         0.327943        -0.392472         0.095229
 C         1.561079         0.441769         0.022094
 C         1.720935        -1.088905        -0.074361
 C        -0.544223        -0.556967         1.344639
 H        -3.026038        -1.914996         2.274547
 H        -0.798202        -3.123892         0.027731
 H        -2.526511        -3.234532         0.036181
 H        -2.703605        -0.871065        -1.052000
 H         1.713656         0.793489        -0.984633
 H         2.045384         0.900997         0.847319
 H         2.113046        -1.390118        -1.005243
 H         2.277913        -1.643745         0.684136
 H        -0.077129        -1.001997         2.205967
 H        -0.994612         0.419198         1.659269
