19
Iteration:  1398charge 0 multiplicity 1
 O        -2.805744        -0.702238         1.532590
 C        -1.853361        -1.349343         0.865835
 C        -2.009212        -2.564732        -0.056901
 C        -1.706441        -1.169456        -0.625193
 O        -0.436469        -0.988372        -0.994375
 C         0.485589        -0.718688         0.087689
 C         1.041113         0.686852         0.115501
 C         1.894477        -0.585667        -0.116649
 C        -0.311352        -1.122254         1.329141
 H        -2.906775        -1.085647         2.457239
 H        -1.213696        -3.350060        -0.345279
 H        -3.024272        -3.018284        -0.100931
 H        -2.574590        -0.784068        -0.990905
 H         0.802188         1.370098        -0.738327
 H         1.020882         1.221251         1.042624
 H         2.033434        -0.601224        -1.272292
 H         2.656833        -1.063331         0.488796
 H         0.074497        -2.170152         1.898013
 H        -0.286778        -0.185265         2.055642
