19
Iteration:   226
 O        -2.910833        -0.959657         1.493823
 C        -1.769123        -1.338793         0.876750
 C        -1.791719        -2.661444         0.035322
 C        -1.797217        -1.141028        -0.593950
 O        -0.552474        -0.739647        -1.039568
 C         0.391229        -0.508031         0.148230
 C         1.278374         0.650366        -0.191433
 C         1.784984        -0.854804        -0.033435
 C        -0.343495        -0.913423         1.429407
 H        -2.910058        -1.187188         2.451466
 H        -0.886368        -3.095119        -0.066694
 H        -2.567749        -3.331201         0.121289
 H        -2.689719        -0.611966        -1.031132
 H         1.032723         0.996128        -1.210428
 H         1.428785         1.405968         0.561860
 H         2.103062        -1.381034        -0.859246
 H         2.344437        -1.120974         0.907364
 H         0.159584        -1.738147         1.873821
 H        -0.452339        -0.134013         2.227394
