19
Iteration:  3778
 O        -2.983882        -0.853650         1.463324
 C        -1.846473        -1.369404         0.822662
 C        -1.869644        -2.630375        -0.005411
 C        -1.786750        -1.259692        -0.615714
 O        -0.474375        -0.808013        -0.966690
 C         0.338468        -0.475473         0.128471
 C         1.407869         0.625552         0.119319
 C         1.836532        -0.760868        -0.234499
 C        -0.375774        -0.952653         1.416285
 H        -2.952696        -1.295250         2.358140
 H        -0.938413        -3.217957        -0.186328
 H        -2.809636        -3.121254         0.176914
 H        -2.582627        -0.771227        -1.231076
 H         1.497046         1.321127        -0.787633
 H         1.916159         1.181863         0.962775
 H         1.984874        -0.885056        -1.241660
 H         2.289884        -1.354985         0.614586
 H         0.027650        -1.849905         1.910210
 H        -0.368479        -0.137992         2.201073
