19
Iteration:  4996
 O        -2.788578        -0.673521         1.566234
 C        -1.763590        -1.238070         0.780025
 C        -2.075703        -2.596380         0.141058
 C        -1.655688        -1.282787        -0.677406
 O        -0.393365        -0.857050        -1.103988
 C         0.404439        -0.690164         0.121666
 C         1.092102         0.666657         0.182696
 C         1.851633        -0.691986        -0.144196
 C        -0.327094        -1.168396         1.346892
 H        -3.581697        -0.905396         1.012891
 H        -1.432691        -3.396969         0.508271
 H        -3.081793        -2.922647        -0.158914
 H        -2.490062        -1.051946        -1.315144
 H         0.807192         1.424073        -0.604639
 H         1.243043         1.133755         1.188071
 H         1.901760        -0.659303        -1.227637
 H         2.546394        -1.000259         0.545911
 H         0.091588        -2.165830         1.647685
 H        -0.203373        -0.543387         2.300915
