19
Iteration:  1097
 O        -2.850240        -0.872893         1.682283
 C        -1.771037        -1.273850         0.769887
 C        -1.967093        -2.501104        -0.041835
 C        -1.685606        -1.131862        -0.721985
 O        -0.429686        -0.970061        -1.002846
 C         0.376474        -0.707271         0.111049
 C         1.055199         0.578987        -0.019392
 C         1.893424        -0.618335        -0.113207
 C        -0.339524        -1.011280         1.414938
 H        -2.651886        -1.406316         2.503038
 H        -1.351594        -3.220228        -0.447361
 H        -3.046944        -2.596008         0.015058
 H        -2.404627        -0.711434        -1.384359
 H         0.670885         1.236652        -0.863516
 H         1.133108         1.201798         0.961269
 H         2.288027        -0.965503        -1.080638
 H         2.622765        -0.604515         0.738869
 H         0.047996        -1.835667         2.041098
 H        -0.377931        -0.236837         2.152305
