19
Iteration:  3504
 O        -2.776476        -0.719976         1.583639
 C        -1.730942        -1.420229         0.877374
 C        -2.253179        -2.436232        -0.068759
 C        -1.647467        -1.137232        -0.652705
 O        -0.250478        -1.184935        -1.024915
 C         0.437205        -0.708212         0.105113
 C         0.894300         0.711732         0.075233
 C         1.966118        -0.404862        -0.103565
 C        -0.363676        -1.236901         1.351585
 H        -3.109787        -1.185432         2.406209
 H        -1.735283        -3.142181        -0.684654
 H        -3.310679        -2.378040         0.006600
 H        -2.296052        -0.300006        -1.003322
 H         0.640915         1.212925        -0.799853
 H         1.096322         1.295345         0.943860
 H         2.195679        -0.680607        -1.055948
 H         2.842150        -0.660002         0.559883
 H         0.024101        -2.145511         1.812540
 H        -0.341125        -0.561666         2.164199
