19
Iteration:  1688
 O        -2.955097        -1.089567         1.571623
 C        -1.751609        -1.302930         0.811290
 C        -1.747317        -2.673802         0.033798
 C        -1.785394        -1.239818        -0.594786
 O        -0.577732        -0.465790        -1.005215
 C         0.319777        -0.395327         0.105322
 C         1.472331         0.471965        -0.088396
 C         1.785955        -1.067680        -0.052318
 C        -0.456669        -0.699215         1.340698
 H        -3.014134        -1.786989         2.269841
 H        -0.796122        -3.113522        -0.019682
 H        -2.760456        -3.123799         0.054371
 H        -2.511485        -0.916586        -1.229824
 H         1.660664         0.864838        -1.064095
 H         1.708139         1.371910         0.549759
 H         2.005789        -1.474959        -0.980298
 H         2.133570        -1.500159         0.916013
 H         0.011764        -1.332405         2.175452
 H        -0.773264         0.193282         1.897638
