19
Iteration:  3815
 O        -2.906826        -0.951837         1.629320
 C        -1.797113        -1.263334         0.837472
 C        -1.754043        -2.563106         0.044901
 C        -1.716951        -1.144228        -0.658568
 O        -0.474235        -0.631198        -1.072102
 C         0.370240        -0.669100         0.082271
 C         1.232393         0.508895         0.061147
 C         1.821166        -0.883450        -0.100119
 C        -0.488277        -0.855628         1.317607
 H        -3.305138        -1.753318         1.979940
 H        -0.844798        -3.176505         0.013860
 H        -2.737260        -3.103648        -0.068645
 H        -2.545929        -0.881437        -1.316236
 H         1.217547         0.909042        -0.922162
 H         1.542333         1.117712         0.906718
 H         2.468944        -1.362661        -0.904357
 H         2.231676        -1.201149         0.833465
 H        -0.048849        -1.501433         2.086005
 H        -0.701443         0.135154         1.759674
