19
Iteration:   976charge 0 multiplicity 1
 O        -2.846489        -0.880413         1.570059
 C        -1.767327        -1.374301         0.884439
 C        -2.014032        -2.543293        -0.017974
 C        -1.748544        -1.157456        -0.643641
 O        -0.458733        -1.013738        -1.038656
 C         0.378937        -0.584734         0.116882
 C         1.246702         0.746934         0.118053
 C         1.880219        -0.643690        -0.192891
 C        -0.387716        -0.984933         1.363275
 H        -3.209881        -1.581964         2.170498
 H        -1.169107        -3.267087        -0.159013
 H        -3.024387        -2.907118         0.029805
 H        -2.523413        -0.765134        -1.297039
 H         1.179693         1.518383        -0.741050
 H         1.488598         1.284156         1.099413
 H         2.082620        -0.886636        -1.317876
 H         2.571019        -1.203714         0.519634
 H         0.141833        -1.791765         1.869042
 H        -0.520269        -0.193042         2.087067
