19
Iteration:  3537
 O        -2.768552        -0.651387         1.631051
 C        -1.788450        -1.295626         0.855946
 C        -2.105472        -2.505090        -0.071715
 C        -1.668886        -1.175181        -0.667562
 O        -0.295454        -1.079292        -1.013637
 C         0.412893        -0.690423         0.147876
 C         0.914937         0.724752         0.058873
 C         1.858270        -0.490797        -0.046427
 C        -0.276977        -1.325941         1.286398
 H        -3.499873        -1.272867         1.888109
 H        -1.428128        -3.374306        -0.114030
 H        -3.156379        -2.729931        -0.110933
 H        -2.322698        -0.458077        -1.274517
 H         0.735635         1.232622        -0.860878
 H         1.152520         1.421477         0.830433
 H         2.056592        -0.726537        -1.030200
 H         2.548804        -0.768080         0.761447
 H         0.047857        -2.377547         1.404567
 H        -0.063716        -0.751734         2.172812
