19
Iteration:  1944charge 0 multiplicity 1
 O        -3.027796        -0.994110         1.576691
 C        -1.818327        -1.397956         0.913744
 C        -1.913151        -2.591959         0.030552
 C        -1.696682        -1.183711        -0.593346
 O        -0.518976        -0.595213        -1.039080
 C         0.431663        -0.625383         0.069173
 C         1.408761         0.553477        -0.048324
 C         1.916285        -0.849233        -0.105462
 C        -0.470582        -0.825510         1.377659
 H        -3.160971        -1.761518         2.185466
 H        -1.167108        -3.272008         0.062771
 H        -2.830925        -2.877505        -0.356058
 H        -2.621411        -0.882561        -1.016316
 H         1.389481         1.092254        -1.054961
 H         1.716378         1.084331         0.789320
 H         2.379217        -0.900004        -1.114874
 H         2.546569        -1.385767         0.502277
 H         0.039649        -1.415206         2.091226
 H        -0.654031         0.199224         1.884177
