19
Iteration:  4989
 O        -2.725167        -0.678024         1.532390
 C        -1.767556        -1.282533         0.816857
 C        -2.048601        -2.614179         0.108379
 C        -1.673475        -1.328333        -0.679036
 O        -0.364157        -0.873117        -1.091924
 C         0.333748        -0.619882         0.123376
 C         1.102586         0.665609         0.203669
 C         1.796514        -0.658140        -0.175379
 C        -0.365851        -1.131049         1.366087
 H        -3.598521        -0.772407         1.088720
 H        -1.433226        -3.427958         0.530447
 H        -3.172765        -2.713421         0.085632
 H        -2.486903        -0.888426        -1.393657
 H         1.134126         1.419960        -0.526291
 H         1.263255         1.061394         1.278040
 H         2.052104        -0.843517        -1.216653
 H         2.717744        -1.254180         0.329540
 H        -0.037272        -2.113335         1.638835
 H        -0.336032        -0.618205         2.271030
