19
Iteration:  1794
 O        -3.056058        -1.262624         1.605601
 C        -1.785836        -1.316948         0.891789
 C        -1.433080        -2.521018        -0.007522
 C        -1.764424        -1.156904        -0.574349
 O        -0.668144        -0.334775        -1.028483
 C         0.300435        -0.391279         0.094220
 C         1.713172         0.282934        -0.220010
 C         1.626151        -1.183903         0.026432
 C        -0.597673        -0.492756         1.355582
 H        -3.024788        -1.966422         2.296662
 H        -0.461356        -2.833185        -0.093374
 H        -2.037077        -3.334126        -0.258675
 H        -2.632542        -1.035140        -1.143292
 H         1.663761         0.698305        -1.208555
 H         2.138482         0.839406         0.615958
 H         1.783389        -1.863703        -0.754907
 H         1.821981        -1.638451         1.030088
 H        -0.134742        -0.976656         2.227418
 H        -1.056342         0.446379         1.562344
