19
Iteration:  2623
 O        -2.913219        -1.237465         1.540933
 C        -1.689213        -1.330176         0.874056
 C        -1.455657        -2.512903         0.020898
 C        -1.700876        -1.215258        -0.662680
 O        -0.666965        -0.255255        -0.934652
 C         0.233111        -0.408611         0.061557
 C         1.548270         0.275437        -0.108894
 C         1.501538        -1.288431         0.029848
 C        -0.544621        -0.473639         1.320703
 H        -3.024388        -1.926152         2.197585
 H        -0.479890        -2.841817        -0.134066
 H        -2.163365        -3.327726         0.030337
 H        -2.635608        -1.027749        -1.387740
 H         1.690123         0.793922        -0.996244
 H         1.929470         0.851478         0.789341
 H         1.568077        -1.790128        -0.857741
 H         1.746265        -1.748567         0.955244
 H         0.027298        -0.866690         2.141423
 H        -0.902929         0.628153         1.437851
