19
Iteration:  4125charge 0 multiplicity 1
 O        -2.991761        -0.825836         1.490414
 C        -1.837855        -1.344290         0.872370
 C        -1.777124        -2.655671        -0.026938
 C        -1.717472        -1.223789        -0.583957
 O        -0.510622        -0.740885        -0.937325
 C         0.375668        -0.510491         0.114432
 C         1.422519         0.582703        -0.022879
 C         1.831041        -0.912891        -0.230351
 C        -0.512203        -0.897175         1.503375
 H        -3.502266        -1.555734         1.832778
 H        -0.698020        -2.991524        -0.102569
 H        -2.654838        -3.234582        -0.365450
 H        -2.689889        -0.733283        -1.037310
 H         1.272736         1.379481        -0.768608
 H         1.577809         1.074426         1.038812
 H         2.248873        -1.177107        -1.154535
 H         2.602478        -1.374578         0.410556
 H         0.231227        -1.438086         2.120258
 H        -0.581317         0.065958         1.967240
