19
Iteration:  2489
 O        -2.905866        -0.984007         1.645023
 C        -1.763537        -1.303321         0.834574
 C        -1.791579        -2.590773        -0.036915
 C        -1.732452        -1.109674        -0.632837
 O        -0.457205        -0.660746        -1.095335
 C         0.308696        -0.597425         0.101116
 C         1.292570         0.539460         0.040397
 C         1.744417        -0.943776        -0.096318
 C        -0.453913        -0.804173         1.360404
 H        -2.965998        -1.791102         2.157288
 H        -0.944975        -3.295649         0.015013
 H        -2.807371        -3.091982        -0.117183
 H        -2.551180        -0.726555        -1.045892
 H         1.240597         0.990803        -0.998153
 H         1.647578         1.167963         0.882164
 H         2.295570        -1.316148        -1.027739
 H         2.337516        -1.290250         0.809982
 H         0.074704        -1.429437         2.141056
 H        -0.581680         0.225630         1.841509
