19
Iteration:   373
 O        -2.783883        -0.926275         1.780645
 C        -1.859049        -1.360154         0.842615
 C        -1.850863        -2.639716         0.118622
 C        -1.661561        -1.306783        -0.679564
 O        -0.432248        -0.699696        -1.144756
 C         0.305456        -0.417725         0.041059
 C         1.276925         0.666896        -0.137738
 C         1.754434        -0.868494        -0.022872
 C        -0.473024        -0.900936         1.348060
 H        -3.701321        -1.301939         1.733481
 H        -0.851648        -3.300702         0.108829
 H        -2.868720        -3.127200        -0.041861
 H        -2.429719        -1.093031        -1.393064
 H         1.322583         1.253375        -1.074025
 H         1.431507         1.251459         0.752192
 H         1.993730        -1.406011        -0.910057
 H         2.368802        -1.183403         0.936488
 H         0.175923        -1.618162         1.797861
 H        -0.695582        -0.123915         2.097722
