19
Iteration:  4290charge 0 multiplicity 1
 O        -2.988748        -1.042393         1.453240
 C        -1.797283        -1.335408         0.819132
 C        -1.485578        -2.573619         0.104458
 C        -1.722231        -1.150096        -0.617929
 O        -0.577436        -0.448458        -0.974781
 C         0.273368        -0.548021         0.111697
 C         1.472507         0.370929         0.005252
 C         1.631868        -1.090553        -0.123863
 C        -0.538530        -0.687014         1.333732
 H        -2.855730        -1.331622         2.401186
 H        -0.483479        -2.993579         0.259043
 H        -2.282943        -3.299840        -0.049000
 H        -2.611743        -1.011961        -1.085704
 H         1.619316         1.052021        -0.916595
 H         1.653919         0.843119         1.020768
 H         1.878745        -1.481590        -1.087948
 H         2.184752        -1.557482         0.609068
 H        -0.032827        -1.109836         2.230866
 H        -0.840881         0.323196         1.667536
