19
Iteration:  3253charge 0 multiplicity 1
 O        -2.909365        -0.751216         1.460950
 C        -1.818511        -1.308471         0.777574
 C        -1.925353        -2.583595         0.076986
 C        -1.781520        -1.181156        -0.600124
 O        -0.481981        -0.880727        -1.136201
 C         0.347111        -0.586537         0.128289
 C         1.286437         0.688794         0.162751
 C         1.794496        -0.707000        -0.154634
 C        -0.249100        -1.117704         1.463127
 H        -3.155291        -1.403032         2.140146
 H        -1.069060        -3.284619         0.089616
 H        -2.839059        -3.176239        -0.003889
 H        -2.662551        -1.011416        -1.213545
 H         1.238689         1.282713        -0.716102
 H         1.492745         1.147990         1.182315
 H         2.069164        -0.747224        -1.212383
 H         2.555734        -1.107054         0.528759
 H         0.156985        -2.147344         1.708163
 H        -0.181934        -0.480822         2.346726
