19
Iteration:   206
 O        -3.026909        -0.943624         1.613410
 C        -1.828990        -1.351290         0.930960
 C        -1.719455        -2.585988         0.032725
 C        -1.684948        -1.251099        -0.586017
 O        -0.428268        -0.736003        -0.998361
 C         0.330290        -0.513688         0.140593
 C         1.333204         0.599067        -0.130983
 C         1.782822        -0.810754        -0.228005
 C        -0.495586        -0.876623         1.392063
 H        -2.999542        -1.420794         2.486217
 H        -0.903595        -3.220454         0.015769
 H        -2.641956        -3.067082        -0.234691
 H        -2.444868        -0.981895        -1.351670
 H         1.255065         1.192756        -1.071789
 H         1.886875         1.179388         0.623701
 H         1.916129        -1.294081        -1.174892
 H         2.507105        -1.090840         0.550804
 H         0.117729        -1.504637         1.944148
 H        -0.834256        -0.025584         2.060372
