19
Iteration:  4712
 O        -2.821267        -0.917991         1.620759
 C        -1.776244        -1.278024         0.834778
 C        -2.027551        -2.485969        -0.063495
 C        -1.707049        -1.150371        -0.619159
 O        -0.355962        -0.902939        -0.996728
 C         0.394686        -0.621648         0.095338
 C         1.141404         0.622712        -0.083946
 C         1.843378        -0.779577        -0.004721
 C        -0.360093        -0.949996         1.388346
 H        -3.548141        -1.549275         1.710618
 H        -1.593877        -3.496747        -0.050471
 H        -3.114194        -2.641404        -0.084917
 H        -2.391834        -0.672769        -1.444720
 H         1.099008         1.157514        -1.112798
 H         1.351456         1.431999         0.704599
 H         2.168390        -1.082031        -0.974535
 H         2.411897        -0.963973         0.898782
 H        -0.020473        -1.780780         1.957980
 H        -0.427392        -0.150442         2.150844
