19
Iteration:   175
 O        -2.953016        -1.027126         1.600279
 C        -1.768163        -1.291326         0.869712
 C        -1.768555        -2.667885         0.203527
 C        -1.756052        -1.298293        -0.628800
 O        -0.510314        -0.639895        -1.045449
 C         0.361366        -0.532875         0.068981
 C         1.382763         0.540523         0.085684
 C         1.813658        -0.837994        -0.254100
 C        -0.489953        -0.692424         1.262478
 H        -3.378267        -1.857025         1.822223
 H        -0.832406        -3.227113         0.123084
 H        -2.769387        -3.216128         0.312491
 H        -2.650586        -0.958108        -1.185075
 H         1.438512         1.230181        -0.792154
 H         1.789335         0.796415         1.087892
 H         1.898365        -1.099983        -1.322797
 H         2.568071        -1.355182         0.365080
 H         0.124125        -1.172729         2.043970
 H        -0.887530         0.305976         1.680088
