19
Iteration:  1436charge 0 multiplicity 1
 O        -2.888927        -0.812479         1.678814
 C        -1.747064        -1.347759         0.851689
 C        -2.066822        -2.538312         0.023623
 C        -1.667903        -1.238352        -0.637039
 O        -0.416105        -0.962417        -1.102385
 C         0.392557        -0.560885         0.101730
 C         1.208493         0.838893         0.020779
 C         1.817961        -0.718937        -0.048983
 C        -0.307237        -1.100432         1.287743
 H        -3.418203        -1.562778         1.972332
 H        -1.398826        -3.381104         0.037294
 H        -3.106266        -2.653064        -0.167938
 H        -2.293896        -0.729570        -1.481857
 H         1.254152         1.369749        -0.913643
 H         1.287171         1.322679         1.030993
 H         2.109806        -0.928879        -1.024239
 H         2.398382        -1.173074         0.785726
 H         0.009568        -2.023503         1.543772
 H        -0.325616        -0.446057         2.104134
