19
Iteration:   135charge 0 multiplicity 1
 O        -2.889573        -0.997394         1.698620
 C        -1.785079        -1.348753         0.881533
 C        -1.476482        -2.635045         0.030118
 C        -1.749295        -1.322059        -0.691645
 O        -0.616888        -0.532033        -1.089238
 C         0.215595        -0.401748         0.059320
 C         1.431750         0.467541        -0.060599
 C         1.591775        -1.043982         0.030315
 C        -0.481057        -0.624145         1.300346
 H        -3.323793        -1.775246         2.115347
 H        -0.357139        -2.878109        -0.175399
 H        -2.308608        -3.479628         0.031233
 H        -2.614313        -1.118920        -1.341511
 H         1.639626         0.894302        -1.045610
 H         1.757834         1.183745         0.706383
 H         1.969665        -1.463366        -1.019113
 H         2.069725        -1.485483         0.880311
 H         0.089080        -1.374453         1.993628
 H        -0.605269         0.283660         1.815865
