19
Iteration:  1741
 O        -2.958344        -1.153602         1.549055
 C        -1.722388        -1.344199         0.867999
 C        -1.400888        -2.519916         0.057577
 C        -1.723646        -1.171332        -0.649016
 O        -0.610115        -0.501642        -1.035906
 C         0.233658        -0.405659         0.156873
 C         1.554614         0.333866        -0.014659
 C         1.467457        -1.194684        -0.186574
 C        -0.603050        -0.451401         1.378150
 H        -3.017518        -1.701437         2.373917
 H        -0.374258        -2.750386         0.015249
 H        -2.003710        -3.427783         0.095523
 H        -2.511169        -0.881918        -1.235670
 H         1.924480         0.966893        -0.793863
 H         2.023072         0.601748         0.971741
 H         1.451547        -1.443615        -1.191546
 H         2.107012        -1.743132         0.561800
 H        -0.022843        -1.130148         2.107390
 H        -0.973388         0.448017         1.857709
