19
Iteration:  3896charge 0 multiplicity 1
 O        -2.986740        -1.225374         1.582528
 C        -1.848847        -1.193315         0.862701
 C        -1.485954        -2.534684        -0.000417
 C        -1.784116        -1.169974        -0.641820
 O        -0.564476        -0.456475        -0.981089
 C         0.314110        -0.598572         0.104706
 C         1.546419         0.349312        -0.051172
 C         1.682347        -1.121807        -0.096808
 C        -0.580135        -0.527120         1.350572
 H        -3.068023        -1.685172         2.396762
 H        -0.456799        -2.856177        -0.080237
 H        -2.268892        -3.281869        -0.057994
 H        -2.608842        -0.817859        -1.231880
 H         1.390965         0.918462        -1.051735
 H         1.751378         1.067427         0.702762
 H         1.958389        -1.652478        -0.997897
 H         2.099673        -1.445973         0.863061
 H        -0.126496        -0.903087         2.276420
 H        -0.795436         0.527689         1.525656
