19
Iteration:  1010
 O        -2.874371        -0.721448         1.626198
 C        -1.817698        -1.354189         0.901727
 C        -1.825452        -2.535305        -0.013848
 C        -1.668288        -1.204381        -0.621086
 O        -0.441590        -0.875022        -1.113800
 C         0.404369        -0.636777         0.110518
 C         1.096510         0.660617         0.097820
 C         1.832733        -0.674188        -0.212446
 C        -0.416264        -1.114091         1.414467
 H        -3.419297        -1.478541         1.986262
 H        -0.997153        -3.166001         0.103093
 H        -2.749702        -3.101217        -0.231765
 H        -2.378580        -0.983192        -1.351072
 H         0.764389         1.414491        -0.769119
 H         1.522946         1.085086         1.093568
 H         1.975984        -1.106655        -1.278720
 H         2.563521        -0.990285         0.512011
 H         0.050400        -2.037448         1.736179
 H        -0.355886        -0.379865         2.177727
