19
Iteration:   553charge 0 multiplicity 1
 O        -2.847319        -1.294400         1.864753
 C        -1.778059        -1.301131         0.803402
 C        -1.356195        -2.503590         0.027226
 C        -1.739953        -1.203690        -0.724645
 O        -0.648610        -0.371640        -1.049962
 C         0.227215        -0.459144         0.095962
 C         1.598200         0.315565        -0.087888
 C         1.480000        -1.192018        -0.044420
 C        -0.635051        -0.422905         1.281410
 H        -3.654382        -1.293934         1.326899
 H        -0.335466        -2.823534        -0.026420
 H        -1.989073        -3.288367        -0.101542
 H        -2.481126        -1.228411        -1.531896
 H         1.705673         0.819945        -1.114381
 H         2.110528         0.779482         0.762497
 H         1.697089        -1.848797        -0.826439
 H         1.779767        -1.572030         0.927723
 H        -0.203513        -0.780529         2.257731
 H        -1.063155         0.507689         1.389906
