19
Iteration:  4181charge 0 multiplicity 1
 O        -2.949482        -0.998941         1.718589
 C        -1.809238        -1.250290         0.803885
 C        -1.785685        -2.489144        -0.061340
 C        -1.756696        -1.175359        -0.705302
 O        -0.488207        -0.806981        -1.162725
 C         0.320079        -0.544239         0.041905
 C         1.397937         0.556787         0.038009
 C         1.828415        -0.851089         0.084139
 C        -0.504032        -0.870330         1.331192
 H        -2.692593        -1.352999         2.586436
 H        -0.945419        -3.182837        -0.158771
 H        -2.777476        -2.940280         0.130348
 H        -2.671535        -0.855580        -1.278977
 H         1.578001         0.988211        -1.053054
 H         1.614946         1.111609         0.937360
 H         2.097028        -1.172466        -0.890545
 H         2.082477        -1.251389         1.002606
 H         0.091966        -1.621435         1.857730
 H        -0.479850         0.062136         1.878914
