19
Iteration:  3505
 O        -2.774926        -0.723645         1.583244
 C        -1.736245        -1.408021         0.886847
 C        -2.259174        -2.441250        -0.067101
 C        -1.643707        -1.145830        -0.654663
 O        -0.254582        -1.176849        -1.030571
 C         0.446250        -0.707600         0.110182
 C         0.892791         0.707992         0.071060
 C         1.977299        -0.404807        -0.107891
 C        -0.362371        -1.244322         1.357570
 H        -3.118723        -1.186039         2.373304
 H        -1.745845        -3.122965        -0.692946
 H        -3.314179        -2.372173        -0.025196
 H        -2.304667        -0.296723        -1.027150
 H         0.604634         1.221851        -0.805962
 H         1.090000         1.289085         0.946461
 H         2.208077        -0.663292        -1.066085
 H         2.806691        -0.662572         0.583018
 H         0.013775        -2.118544         1.840574
 H        -0.341733        -0.562105         2.179812
