19
Iteration:    17
 O        -2.917542        -1.073204         1.734056
 C        -1.811259        -1.430896         0.825850
 C        -1.397819        -2.654899         0.126383
 C        -1.729594        -1.287631        -0.681838
 O        -0.643394        -0.389130        -1.113118
 C         0.260226        -0.249986         0.056419
 C         1.556678         0.406994        -0.090317
 C         1.633718        -1.077178        -0.068298
 C        -0.648458        -0.648172         1.285247
 H        -2.936790        -1.698101         2.455566
 H        -0.357875        -2.965900         0.422060
 H        -2.260543        -3.496121         0.127488
 H        -2.505177        -1.357795        -1.469005
 H         1.712119         0.873189        -1.078421
 H         2.026767         1.024927         0.690167
 H         1.613399        -1.685064        -1.023694
 H         1.685311        -1.672897         0.896140
 H        -0.043361        -1.123852         2.150433
 H        -1.138013         0.223233         1.750240
