19
Iteration:   389charge 0 multiplicity 1
 O        -2.835016        -0.968538         1.858534
 C        -1.809996        -1.260241         0.814369
 C        -1.755350        -2.625055         0.050049
 C        -1.746218        -1.275214        -0.712894
 O        -0.484107        -0.838358        -1.118219
 C         0.325872        -0.553802         0.075849
 C         1.304138         0.598970         0.022739
 C         1.768146        -0.788761        -0.123978
 C        -0.458426        -0.722063         1.282486
 H        -3.608198        -1.404299         1.452496
 H        -0.989217        -3.239845         0.299692
 H        -2.666040        -3.131471        -0.167541
 H        -2.547733        -1.044729        -1.454746
 H         1.275277         1.141716        -0.899034
 H         1.559067         1.143702         0.962859
 H         2.112300        -1.133923        -1.118919
 H         2.249354        -1.218807         0.672297
 H        -0.098917        -1.519596         2.009043
 H        -0.524281         0.237503         1.804057
