19
Iteration:  3266charge 0 multiplicity 1
 O        -2.925354        -0.748132         1.541621
 C        -1.790394        -1.248322         0.925058
 C        -1.887666        -2.554398         0.085632
 C        -1.750790        -1.248117        -0.730878
 O        -0.465429        -0.897397        -1.020041
 C         0.405123        -0.620407         0.090869
 C         1.183001         0.680422         0.169687
 C         1.852090        -0.695100        -0.157131
 C        -0.332469        -1.142620         1.267379
 H        -3.368962        -1.376496         2.167926
 H        -0.989218        -3.087703        -0.074611
 H        -2.863990        -2.946161        -0.096967
 H        -2.427442        -0.825966        -1.422678
 H         1.296367         1.424580        -0.584718
 H         1.343167         1.127810         1.122656
 H         2.122927        -0.938770        -1.217744
 H         2.400904        -1.219479         0.530508
 H         0.075981        -2.110027         1.655048
 H        -0.295137        -0.367485         2.069197
