19
Iteration:  4632
 O        -2.924046        -0.787844         1.505101
 C        -1.782549        -1.283140         0.807497
 C        -1.872569        -2.587216         0.139586
 C        -1.648956        -1.173598        -0.660719
 O        -0.403610        -0.781687        -1.099952
 C         0.329710        -0.639040         0.141023
 C         1.176510         0.612220         0.090141
 C         1.773712        -0.792661        -0.189852
 C        -0.344664        -1.067624         1.386198
 H        -3.020348        -1.146537         2.395402
 H        -1.124732        -3.368158         0.297790
 H        -2.945351        -2.870477         0.027968
 H        -2.413765        -0.836358        -1.288710
 H         0.969266         1.363497        -0.589347
 H         1.468490         0.994798         1.044815
 H         2.029849        -1.214312        -1.194018
 H         2.501793        -1.036847         0.668116
 H        -0.142007        -1.984411         1.794262
 H        -0.462204        -0.205598         2.086683
