19
Iteration:  2389
 O        -2.965715        -0.803369         1.575739
 C        -1.785468        -1.361645         0.938693
 C        -1.766677        -2.597556        -0.113803
 C        -1.793132        -1.135241        -0.545523
 O        -0.532826        -0.744109        -1.067066
 C         0.344627        -0.580599         0.051613
 C         1.327547         0.587728         0.005775
 C         1.893599        -0.839771        -0.056264
 C        -0.462449        -1.017861         1.357233
 H        -3.435643        -1.342635         2.261247
 H        -0.871808        -3.266309        -0.047952
 H        -2.611985        -3.289105        -0.201482
 H        -2.660913        -0.726412        -0.983536
 H         1.416254         1.198261        -0.919790
 H         1.550633         1.154201         0.935419
 H         2.385570        -0.954723        -1.053528
 H         2.682463        -1.335955         0.652703
 H         0.121223        -1.840569         1.918072
 H        -0.513876        -0.085737         1.945952
