19
Iteration:  2206
 O        -3.018386        -1.216141         1.550354
 C        -1.734904        -1.349669         0.897005
 C        -1.482272        -2.545374         0.073928
 C        -1.714081        -1.155260        -0.627952
 O        -0.646445        -0.355985        -1.114083
 C         0.280984        -0.366280         0.056848
 C         1.641815         0.343808        -0.059164
 C         1.507027        -1.136309        -0.058568
 C        -0.510325        -0.586558         1.386607
 H        -3.127252        -1.848950         2.259063
 H        -0.516955        -3.046910         0.262084
 H        -2.410635        -3.175444         0.125294
 H        -2.660512        -0.960066        -1.046537
 H         1.887594         0.940356        -1.030842
 H         2.085937         0.667434         0.885953
 H         1.719304        -1.752085        -0.984564
 H         1.815211        -1.852159         0.766746
 H         0.068408        -1.135522         2.059040
 H        -0.902661         0.286491         1.990985
