19
Iteration:   246
 O        -2.881199        -0.917561         1.556116
 C        -1.678939        -1.399072         0.930211
 C        -1.845213        -2.567022        -0.001057
 C        -1.765849        -1.249761        -0.580555
 O        -0.572036        -0.759476        -1.070848
 C         0.284944        -0.509650        -0.017088
 C         1.250883         0.570033        -0.111477
 C         1.850554        -0.744692         0.039055
 C        -0.350914        -0.902305         1.370313
 H        -3.036981        -1.470548         2.320995
 H        -1.097497        -3.265620        -0.267162
 H        -2.842241        -2.832238         0.109767
 H        -2.718497        -0.856940        -0.922141
 H         1.403696         0.915827        -1.116615
 H         1.393965         1.258131         0.662054
 H         2.381140        -1.092723        -0.732425
 H         2.259555        -1.096617         1.041979
 H         0.082658        -1.724985         2.020131
 H        -0.333145         0.035498         1.861210
