19
Iteration:  2721charge 0 multiplicity 1
 O        -2.948934        -0.965311         1.549915
 C        -1.777351        -1.282692         0.909628
 C        -1.567219        -2.614885        -0.066610
 C        -1.766356        -1.228047        -0.501850
 O        -0.581426        -0.561188        -1.094846
 C         0.266124        -0.481218         0.047318
 C         1.484362         0.492144         0.082983
 C         1.638946        -1.081831        -0.108850
 C        -0.445641        -0.733807         1.376022
 H        -3.230972        -1.619163         2.202599
 H        -0.599541        -3.108175        -0.169508
 H        -2.294842        -3.300932        -0.363101
 H        -2.786200        -0.877685        -1.140233
 H         1.638429         1.260235        -0.798696
 H         1.683055         1.033281         0.943638
 H         1.818138        -1.618864        -1.048288
 H         1.967724        -1.654636         0.682090
 H         0.220977        -1.348530         1.929805
 H        -0.741313         0.238348         1.917155
