19
Iteration:  4119
 O        -3.041545        -0.828529         1.493497
 C        -1.831177        -1.305218         0.862475
 C        -1.745802        -2.643045        -0.014993
 C        -1.726298        -1.222620        -0.564042
 O        -0.474604        -0.735614        -0.936717
 C         0.388351        -0.512895         0.190212
 C         1.385894         0.564804         0.003695
 C         1.807967        -0.912170        -0.256518
 C        -0.465270        -0.888041         1.411245
 H        -3.479077        -1.628242         1.813190
 H        -0.785208        -3.093986        -0.069735
 H        -2.548977        -3.364112        -0.167442
 H        -2.530410        -0.734473        -0.996634
 H         1.335098         1.382553        -0.808675
 H         1.645791         0.954963         0.918315
 H         2.107541        -1.131027        -1.353801
 H         2.480108        -1.403270         0.441967
 H         0.121072        -1.582001         2.029052
 H        -0.667289         0.068163         2.004596
