19
Iteration:  2919
 O        -3.050389        -1.027564         1.508267
 C        -1.848049        -1.304110         0.864346
 C        -1.624640        -2.601756         0.061653
 C        -1.764072        -1.228125        -0.646460
 O        -0.645308        -0.433318        -1.032939
 C         0.384000        -0.495393         0.167634
 C         1.512684         0.447094        -0.044038
 C         1.768667        -1.047915        -0.127982
 C        -0.456954        -0.787569         1.416587
 H        -3.207367        -1.714222         2.229704
 H        -0.597952        -2.904644         0.412829
 H        -2.432417        -3.395694        -0.213870
 H        -2.654992        -1.124628        -1.220641
 H         1.592978         1.227840        -0.869930
 H         1.945546         0.797950         0.907892
 H         1.790619        -1.413248        -1.207956
 H         2.584177        -1.530365         0.465010
 H         0.176123        -1.222160         2.123213
 H        -0.550412         0.283452         1.766507
