19
Iteration:  4346
 O        -2.944881        -1.317410         1.657622
 C        -1.783384        -1.255217         0.828302
 C        -1.491984        -2.446947        -0.029848
 C        -1.760551        -1.138512        -0.655339
 O        -0.566131        -0.416062        -1.113271
 C         0.272050        -0.372513         0.135658
 C         1.604011         0.291900        -0.059769
 C         1.590251        -1.261750         0.080511
 C        -0.620289        -0.432959         1.300804
 H        -2.905824        -2.187873         2.071629
 H        -0.520902        -2.891527        -0.175831
 H        -2.342153        -3.078781         0.151753
 H        -2.659174        -1.113953        -1.298461
 H         1.727475         0.442786        -1.098778
 H         2.123582         1.055278         0.719210
 H         1.768248        -1.958182        -0.690682
 H         1.641345        -1.587188         1.104423
 H        -0.157265        -0.763049         2.234866
 H        -1.035783         0.626069         1.368366
