19
Iteration:  1093charge 0 multiplicity 1
 O        -2.853153        -0.874325         1.694691
 C        -1.761573        -1.277530         0.779044
 C        -1.964254        -2.502418        -0.043142
 C        -1.713606        -1.136801        -0.717591
 O        -0.419430        -0.986048        -1.005144
 C         0.392144        -0.633863         0.115361
 C         1.050866         0.602149         0.002596
 C         1.883140        -0.649555        -0.095291
 C        -0.373733        -1.030626         1.378377
 H        -2.566082        -1.300352         2.498407
 H        -1.180856        -3.239094        -0.426803
 H        -3.094861        -2.584755        -0.080255
 H        -2.405171        -0.729044        -1.445318
 H         0.746775         1.136283        -0.860317
 H         1.051586         1.105986         0.887968
 H         2.276640        -0.984507        -1.168127
 H         2.600290        -0.747454         0.727963
 H         0.220801        -1.836314         1.967223
 H        -0.253724        -0.112129         2.137417
