19
Iteration:  1230charge 0 multiplicity 1
 O        -2.737608        -0.641807         1.528179
 C        -1.752757        -1.391166         0.822516
 C        -2.201713        -2.534944        -0.005676
 C        -1.659850        -1.216609        -0.614272
 O        -0.311471        -1.139968        -1.014507
 C         0.379243        -0.595136         0.105750
 C         0.973806         0.810874         0.113563
 C         1.821816        -0.489587        -0.118693
 C        -0.249245        -1.293924         1.326708
 H        -2.893006        -1.098083         2.399330
 H        -1.648050        -3.457307        -0.035694
 H        -3.264091        -2.628830        -0.224034
 H        -2.556402        -0.613335        -0.978569
 H         0.739641         1.480101        -0.745745
 H         1.044119         1.297153         1.099577
 H         2.223875        -0.654894        -1.134521
 H         2.438376        -0.891498         0.599423
 H         0.309993        -2.246205         1.324870
 H        -0.143556        -0.750775         2.216406
