19
Iteration:   512
 O        -2.925283        -1.379994         1.580943
 C        -1.711293        -1.286032         0.939596
 C        -1.496879        -2.564286         0.149543
 C        -1.757919        -1.191554        -0.562430
 O        -0.643500        -0.468298        -1.084875
 C         0.298632        -0.402046         0.007560
 C         1.575511         0.392434         0.003432
 C         1.541283        -1.152174        -0.131775
 C        -0.554712        -0.438505         1.284813
 H        -3.222461        -0.543282         1.981399
 H        -0.504947        -2.984229        -0.081007
 H        -2.363316        -3.214923         0.220856
 H        -2.667641        -1.114825        -1.169231
 H         1.727284         1.105534        -0.909098
 H         2.041964         0.705068         0.947733
 H         1.643639        -1.679778        -1.149238
 H         1.851783        -1.744114         0.751969
 H         0.055199        -0.488464         2.204055
 H        -1.012070         0.636971         1.278038
