19
Iteration:  4242
 O        -2.997246        -0.981355         1.448370
 C        -1.843302        -1.379033         0.853879
 C        -1.823443        -2.668486         0.090079
 C        -1.683115        -1.172007        -0.585510
 O        -0.490731        -0.566931        -1.023810
 C         0.355409        -0.432844         0.125519
 C         1.447730         0.550632        -0.055944
 C         1.767265        -0.969379        -0.116210
 C        -0.441782        -0.786573         1.443844
 H        -3.263689        -1.782080         1.893679
 H        -0.814452        -3.115407         0.261060
 H        -2.727764        -3.314971         0.056543
 H        -2.616718        -0.932794        -1.294469
 H         1.493216         1.163593        -0.933211
 H         2.027943         1.069565         0.717014
 H         1.806739        -1.542516        -1.077247
 H         2.363195        -1.719621         0.585928
 H         0.083222        -1.450152         2.189390
 H        -0.704330         0.108480         2.038289
