19
Iteration:  4135
 O        -2.927460        -0.842058         1.490501
 C        -1.810021        -1.452823         0.934497
 C        -1.817337        -2.589001        -0.048975
 C        -1.761289        -1.218648        -0.577956
 O        -0.533096        -0.700359        -1.041153
 C         0.371582        -0.572212         0.064739
 C         1.418213         0.578577        -0.007607
 C         1.883603        -0.850436        -0.148455
 C        -0.478618        -0.848836         1.522136
 H        -3.485402        -1.435481         1.976375
 H        -0.939507        -3.300410        -0.024178
 H        -2.727424        -3.137865        -0.337180
 H        -2.597111        -0.884034        -1.297914
 H         1.375949         1.106071        -0.910745
 H         1.742573         1.127384         0.952383
 H         1.952686        -1.206104        -1.139574
 H         2.420790        -1.190354         0.763312
 H        -0.074147        -1.603077         2.245193
 H        -0.782446         0.055021         2.021735
