19
Iteration:  4920charge 0 multiplicity 1
 O        -2.784390        -0.915940         1.670940
 C        -1.789679        -1.222870         0.867316
 C        -2.043475        -2.486375         0.024337
 C        -1.674461        -1.124119        -0.697332
 O        -0.332507        -0.914911        -1.115403
 C         0.395024        -0.666162         0.119634
 C         1.090035         0.642639        -0.069452
 C         1.798059        -0.720956         0.045606
 C        -0.364831        -1.090554         1.339976
 H        -3.594150        -0.724771         1.187288
 H        -1.298227        -3.223098         0.277806
 H        -3.085135        -2.732042         0.028554
 H        -2.469983        -0.720935        -1.233701
 H         0.904022         1.111761        -1.131527
 H         1.324007         1.439010         0.601420
 H         2.199291        -1.299792        -0.847502
 H         2.291096        -0.831312         0.967245
 H         0.026246        -1.961951         1.843349
 H        -0.153887        -0.343168         2.161325
