19
Iteration:   968charge 0 multiplicity 1
 O        -2.868754        -0.951986         1.570413
 C        -1.739138        -1.397808         0.917892
 C        -2.083380        -2.543303        -0.003470
 C        -1.707440        -1.195910        -0.612796
 O        -0.406886        -0.959469        -1.128916
 C         0.357087        -0.582496         0.090024
 C         1.238872         0.718506         0.061603
 C         1.877735        -0.631164        -0.133344
 C        -0.372862        -0.945230         1.360109
 H        -3.232314        -1.340002         2.372729
 H        -1.393463        -3.318646        -0.060226
 H        -3.176263        -2.610589        -0.085584
 H        -2.499753        -0.536484        -0.882869
 H         1.193120         1.465655        -0.816974
 H         1.511610         1.003115         1.112645
 H         2.209824        -0.946298        -1.114046
 H         2.479746        -0.874543         0.671463
 H         0.120923        -1.804752         1.832785
 H        -0.459347        -0.128548         2.039523
