19
Iteration:  3084charge 0 multiplicity 1
 O        -3.095681        -1.100506         1.456563
 C        -1.762801        -1.337035         0.938921
 C        -1.491155        -2.553165         0.150877
 C        -1.763578        -1.201237        -0.614109
 O        -0.639258        -0.393610        -1.032436
 C         0.325343        -0.444803         0.075073
 C         1.524663         0.391545         0.023264
 C         1.632691        -1.135521        -0.164974
 C        -0.455311        -0.692026         1.330820
 H        -2.983781        -1.493659         2.330448
 H        -0.469521        -2.878173        -0.115683
 H        -2.259919        -3.314697         0.290342
 H        -2.735079        -1.022986        -1.206531
 H         1.820655         0.821505        -0.856755
 H         1.788025         1.085382         0.893191
 H         1.941275        -1.414345        -1.156216
 H         2.166105        -1.756993         0.598716
 H         0.153777        -1.292580         1.965095
 H        -0.607725         0.255782         1.889341
