19
Iteration:   460
 O        -2.974424        -1.021771         1.621003
 C        -1.833148        -1.346377         0.790020
 C        -1.587009        -2.680138         0.125273
 C        -1.666818        -1.265698        -0.644915
 O        -0.572318        -0.489458        -1.022613
 C         0.292092        -0.412794         0.134927
 C         1.458782         0.515410        -0.232222
 C         1.681169        -0.995658        -0.045386
 C        -0.530814        -0.710375         1.386419
 H        -2.936894        -1.526257         2.472871
 H        -0.633197        -3.299492         0.404410
 H        -2.370965        -3.491377        -0.112654
 H        -2.585070        -1.023420        -1.185579
 H         1.164281         0.853382        -1.241607
 H         1.994508         1.147522         0.405827
 H         1.858874        -1.675250        -0.994682
 H         2.316062        -1.323309         0.808252
 H         0.120632        -1.413131         1.865278
 H        -0.770987         0.099305         2.133810
