19
Iteration:  3863charge 0 multiplicity 1
 O        -2.907311        -1.142379         1.613820
 C        -1.798799        -1.388980         0.892531
 C        -1.786176        -2.563392        -0.022984
 C        -1.725438        -1.134703        -0.661132
 O        -0.469396        -0.632874        -1.068752
 C         0.277266        -0.414052         0.056644
 C         1.598075         0.488792        -0.099872
 C         1.612299        -0.980851         0.028612
 C        -0.496088        -0.628304         1.394648
 H        -3.283905        -1.974087         2.013649
 H        -0.842311        -3.140811        -0.111335
 H        -2.676102        -3.141657        -0.068139
 H        -2.671235        -0.580503        -1.031002
 H         1.568880         1.022886        -1.128698
 H         1.763429         1.115966         0.752775
 H         1.907242        -1.623027        -0.760123
 H         2.168164        -1.543852         0.867431
 H         0.080756        -1.124690         2.203228
 H        -0.970496         0.262007         1.778795
