19
Iteration:  4703charge 0 multiplicity 1
 O        -2.767859        -0.867836         1.601694
 C        -1.712601        -1.389064         0.846981
 C        -2.030994        -2.471414        -0.055895
 C        -1.663290        -1.133500        -0.674690
 O        -0.395003        -0.939176        -1.020472
 C         0.305416        -0.570473         0.155843
 C         1.173969         0.641911        -0.093308
 C         1.797564        -0.787036         0.013809
 C        -0.407631        -0.962801         1.402545
 H        -3.356816        -1.627900         1.733854
 H        -1.455168        -3.380129        -0.125977
 H        -3.104750        -2.477444        -0.115386
 H        -2.521002        -0.594481        -1.146396
 H         1.146943         1.093810        -1.109574
 H         1.264607         1.438588         0.775166
 H         2.216854        -1.139348        -0.848384
 H         2.388581        -1.120225         0.839305
 H         0.328440        -1.711003         1.871963
 H        -0.651565        -0.099133         1.986643
