19
Iteration:  1771charge 0 multiplicity 1
 O        -3.012639        -1.265866         1.546597
 C        -1.796412        -1.374011         0.884814
 C        -1.461068        -2.593910         0.068067
 C        -1.640561        -1.219111        -0.630605
 O        -0.664889        -0.253246        -0.956287
 C         0.279314        -0.391991         0.042237
 C         1.579539         0.290278        -0.099567
 C         1.524958        -1.244320        -0.050294
 C        -0.501623        -0.372626         1.326936
 H        -2.942550        -1.670320         2.430843
 H        -0.582078        -3.110454         0.094507
 H        -2.237916        -3.264211        -0.080747
 H        -2.482488        -1.008527        -1.304905
 H         1.823708         0.536651        -1.085440
 H         1.891773         0.888037         0.767700
 H         1.734937        -1.662127        -0.990683
 H         1.867530        -1.833102         0.825021
 H         0.065808        -0.855512         2.086667
 H        -0.929932         0.572560         1.613866
