19
Iteration:  4771charge 0 multiplicity 1
 O        -2.829777        -0.753380         1.484338
 C        -1.718250        -1.334754         0.853981
 C        -1.997568        -2.577036         0.023665
 C        -1.732462        -1.273590        -0.711152
 O        -0.436322        -0.867321        -1.078227
 C         0.361407        -0.539568         0.135420
 C         1.173388         0.631467         0.146737
 C         1.760514        -0.747262        -0.082751
 C        -0.284500        -1.025412         1.376405
 H        -3.139144        -1.407760         2.105131
 H        -1.286635        -3.398259         0.160437
 H        -3.065161        -2.778310         0.108302
 H        -2.512641        -0.700870        -1.122337
 H         0.975480         1.220518        -0.773748
 H         1.493543         1.049953         1.072731
 H         1.979571        -1.058738        -1.166813
 H         2.533749        -1.123955         0.564245
 H         0.231235        -1.893024         1.934160
 H        -0.507919        -0.175125         2.006817
