19
Iteration:  4052
 O        -2.908588        -0.939901         1.612823
 C        -1.753963        -1.420287         0.840129
 C        -1.731231        -2.603114        -0.108783
 C        -1.800323        -1.226296        -0.612913
 O        -0.606658        -0.634758        -1.126396
 C         0.350158        -0.441509         0.062545
 C         1.519304         0.487330         0.021734
 C         1.749569        -0.992663         0.028178
 C        -0.512199        -0.730069         1.381832
 H        -3.055239        -1.453722         2.449741
 H        -0.661063        -2.938103        -0.177309
 H        -2.628869        -3.224136        -0.282946
 H        -2.838044        -0.879880        -1.069387
 H         1.748811         0.994149        -0.954001
 H         1.746394         1.087431         1.001803
 H         2.233109        -1.493344        -0.786470
 H         2.176113        -1.424343         0.958396
 H        -0.127400        -1.175989         2.302288
 H        -1.020643         0.231905         1.716048
