19
Iteration:  3939charge 0 multiplicity 1
 O        -2.968288        -1.165387         1.449767
 C        -1.712276        -1.356483         0.858347
 C        -1.431919        -2.615208         0.073589
 C        -1.608506        -1.300259        -0.659168
 O        -0.673119        -0.318130        -0.989834
 C         0.237766        -0.333438         0.086670
 C         1.614464         0.317539        -0.021011
 C         1.360369        -1.189466        -0.102180
 C        -0.513463        -0.463885         1.406056
 H        -2.837920        -1.462980         2.357751
 H        -0.462642        -2.992442         0.297493
 H        -2.257660        -3.309030         0.113254
 H        -2.537130        -1.277911        -1.118981
 H         2.017903         0.945703        -0.898417
 H         2.040143         0.635773         0.894990
 H         1.416729        -1.681849        -1.103141
 H         1.602032        -1.909905         0.666413
 H        -0.006353        -0.981281         2.240931
 H        -0.890273         0.485025         1.775905
