19
Iteration:  1683charge 0 multiplicity 1
 O        -2.973412        -1.059598         1.591151
 C        -1.722937        -1.318118         0.847109
 C        -1.760072        -2.638933        -0.041674
 C        -1.741073        -1.235413        -0.599390
 O        -0.602683        -0.545032        -1.019313
 C         0.359131        -0.399404         0.132368
 C         1.459473         0.537942        -0.085036
 C         1.713857        -1.047406        -0.030393
 C        -0.440208        -0.702183         1.372450
 H        -2.978124        -1.727398         2.296307
 H        -0.821466        -3.251665        -0.105947
 H        -2.685109        -3.201853        -0.047385
 H        -2.609026        -0.943258        -1.333445
 H         1.625876         0.730650        -1.176748
 H         1.816718         1.312237         0.571124
 H         2.125865        -1.488004        -1.004106
 H         2.150263        -1.546389         0.817601
 H         0.021754        -1.381644         2.073677
 H        -0.666041         0.230228         1.917337
