19
Iteration:  4599
 O        -2.903814        -0.636880         1.515840
 C        -1.846097        -1.450609         0.874612
 C        -1.869602        -2.767626        -0.071398
 C        -1.788471        -1.211014        -0.575172
 O        -0.534543        -0.811841        -1.032267
 C         0.365681        -0.585707         0.095436
 C         1.395250         0.695655         0.055799
 C         1.844543        -0.724163        -0.138895
 C        -0.372504        -1.034526         1.392340
 H        -3.553737        -1.206749         2.048944
 H        -0.987097        -3.442852        -0.079135
 H        -2.835780        -3.334629        -0.115302
 H        -2.555912        -0.714126        -0.951752
 H         1.284669         1.326102        -0.695800
 H         1.649192         1.059008         1.037014
 H         2.171204        -1.131583        -1.134367
 H         2.654481        -1.178397         0.635728
 H         0.128957        -1.729379         2.097945
 H        -0.500863        -0.118638         2.121863
