19
Iteration:  4690charge 0 multiplicity 1
 O        -2.762239        -0.813281         1.615858
 C        -1.730021        -1.428327         0.874924
 C        -2.073564        -2.543748        -0.111726
 C        -1.758549        -1.171972        -0.640997
 O        -0.384751        -0.986761        -1.118995
 C         0.362595        -0.496098         0.124845
 C         1.252809         0.654421        -0.023487
 C         1.784420        -0.741817         0.030514
 C        -0.384019        -0.958067         1.397758
 H        -3.349814        -1.451593         2.068099
 H        -1.265465        -3.248011        -0.428288
 H        -3.030460        -3.085115        -0.148841
 H        -2.466673        -0.263775        -0.965373
 H         1.155720         1.129862        -1.110187
 H         1.450247         1.388786         0.819641
 H         1.999940        -1.255711        -0.916962
 H         2.203533        -1.003063         0.990727
 H         0.068175        -1.642274         2.105689
 H        -0.656628        -0.139355         2.111962
