19
Iteration:  1473charge 0 multiplicity 1
 O        -2.813032        -0.810033         1.670780
 C        -1.752565        -1.329300         0.899305
 C        -1.911384        -2.519694        -0.089536
 C        -1.779578        -1.099430        -0.668806
 O        -0.517187        -0.920777        -1.106977
 C         0.473562        -0.707038         0.088703
 C         1.153739         0.697678        -0.029695
 C         1.884594        -0.701633        -0.003466
 C        -0.438968        -1.089485         1.414421
 H        -3.319826        -1.614040         1.736370
 H        -1.143310        -3.344127        -0.324732
 H        -2.959586        -3.003571        -0.150984
 H        -2.584116        -0.734109        -1.178563
 H         1.054543         1.263347        -0.957227
 H         1.333398         1.410832         0.701747
 H         2.356265        -1.298079        -0.865448
 H         2.544211        -0.754241         0.841079
 H         0.178039        -1.665691         2.089711
 H        -0.536594        -0.175290         2.059384
