19
Iteration:  3680charge 0 multiplicity 1
 O        -2.812504        -0.887114         1.622701
 C        -1.769481        -1.262357         0.856598
 C        -2.154401        -2.584677        -0.093245
 C        -1.734906        -1.213251        -0.622026
 O        -0.405262        -0.918304        -1.025477
 C         0.375161        -0.631708         0.121837
 C         1.182247         0.627960        -0.017019
 C         1.953784        -0.625842         0.002846
 C        -0.329926        -0.991050         1.327355
 H        -3.241843        -1.762610         1.848810
 H        -1.525861        -3.475099        -0.112422
 H        -3.220471        -2.660707        -0.353601
 H        -2.439775        -0.590269        -1.345747
 H         1.263225         1.318484        -0.864295
 H         1.196546         1.349239         0.896964
 H         2.161728        -0.826716        -1.035480
 H         2.592279        -0.931894         0.836733
 H         0.117058        -1.814091         1.889420
 H        -0.490754        -0.147038         2.072518
