19
Iteration:  3470
 O        -2.748346        -0.630124         1.638090
 C        -1.701612        -1.334667         0.827050
 C        -2.148799        -2.497447        -0.147899
 C        -1.758207        -1.210129        -0.677739
 O        -0.309278        -1.138914        -1.003232
 C         0.375748        -0.664355         0.088714
 C         0.913208         0.739776         0.113941
 C         1.892885        -0.477986        -0.074170
 C        -0.279112        -1.266884         1.401072
 H        -2.776978        -1.201068         2.424073
 H        -1.612524        -3.332105        -0.578283
 H        -3.202409        -2.707412        -0.344878
 H        -2.399661        -0.658267        -1.320610
 H         0.749843         1.247318        -0.813264
 H         1.088248         1.427391         0.913166
 H         2.443316        -0.804299        -0.942804
 H         2.481090        -0.777179         0.831649
 H        -0.034298        -2.306220         1.371150
 H        -0.145257        -0.639716         2.236035
