19
Iteration:  4352charge 0 multiplicity 1
 O        -2.951722        -1.317870         1.666469
 C        -1.788554        -1.242101         0.806765
 C        -1.450528        -2.431368        -0.043423
 C        -1.766370        -1.142227        -0.705001
 O        -0.575556        -0.390760        -1.107190
 C         0.266159        -0.428012         0.114085
 C         1.533067         0.212526        -0.071280
 C         1.588157        -1.233434         0.128894
 C        -0.584307        -0.388878         1.374016
 H        -2.850316        -2.264768         1.968239
 H        -0.449049        -2.886496        -0.095090
 H        -2.312577        -3.100023         0.152192
 H        -2.622452        -0.992913        -1.323986
 H         1.629451         0.537658        -1.153834
 H         2.033896         0.921681         0.462061
 H         1.875613        -1.888794        -0.733091
 H         1.790744        -1.624391         1.139180
 H        -0.086479        -0.719896         2.313621
 H        -0.962355         0.613999         1.375710
