19
Iteration:  3129charge 0 multiplicity 1
 O        -2.922616        -0.935466         1.653211
 C        -1.808625        -1.348265         0.889758
 C        -1.824969        -2.680801        -0.078155
 C        -1.687375        -1.284024        -0.679154
 O        -0.485349        -0.578091        -0.979636
 C         0.378536        -0.525133         0.126496
 C         1.369833         0.553786        -0.024085
 C         1.807664        -0.986553        -0.128658
 C        -0.527970        -0.739122         1.356542
 H        -3.150784        -1.638263         2.283343
 H        -0.933973        -3.226684        -0.031936
 H        -2.720395        -3.212908        -0.315106
 H        -2.557602        -0.806943        -1.121434
 H         1.284926         1.108744        -0.935240
 H         1.750648         1.185286         0.702743
 H         2.098937        -1.200797        -1.178971
 H         2.369493        -1.412353         0.645740
 H        -0.083628        -1.277955         2.175208
 H        -0.826319         0.230940         1.750291
