19
Iteration:  2466
 O        -3.010181        -0.945277         1.580083
 C        -1.767434        -1.374311         0.914261
 C        -1.823812        -2.532886        -0.057248
 C        -1.843040        -1.143027        -0.621856
 O        -0.591220        -0.793009        -1.044891
 C         0.427900        -0.591734         0.102622
 C         1.391865         0.605781         0.053230
 C         1.946827        -0.863402        -0.126875
 C        -0.444629        -0.823148         1.310721
 H        -3.125264        -1.526866         2.376739
 H        -0.915661        -3.076452        -0.386535
 H        -2.818158        -3.138667         0.029820
 H        -2.720390        -0.837070        -1.069549
 H         1.664476         1.308086        -0.702570
 H         1.452422         0.974192         1.166392
 H         2.333526        -1.095981        -1.180632
 H         2.701000        -1.342070         0.680494
 H         0.137220        -1.509006         2.043067
 H        -0.559213         0.135634         1.878107
