19
Iteration:   733
 O        -2.956915        -1.010322         1.744793
 C        -1.883997        -1.315492         0.886773
 C        -1.767977        -2.554476        -0.125070
 C        -1.687869        -1.125176        -0.602566
 O        -0.452596        -0.840969        -1.038782
 C         0.388989        -0.579715         0.141035
 C         1.247084         0.605938        -0.033876
 C         1.892621        -0.869405        -0.208120
 C        -0.477031        -0.750916         1.408917
 H        -3.624493        -1.722115         1.770275
 H        -0.714832        -2.979811        -0.087549
 H        -2.663741        -3.115463        -0.222731
 H        -2.547180        -0.805911        -1.249109
 H         1.026669         1.238595        -0.881234
 H         1.524632         1.076067         0.769986
 H         2.126808        -1.229115        -1.236859
 H         2.602265        -1.062990         0.588724
 H        -0.064702        -1.491263         1.981175
 H        -0.465878         0.186960         1.975285
