19
Iteration:  3009
 O        -2.974708        -1.354549         1.656051
 C        -1.789076        -1.293309         0.908966
 C        -1.436826        -2.454957        -0.009213
 C        -1.734750        -1.141913        -0.666943
 O        -0.571797        -0.306916        -1.063882
 C         0.234732        -0.369666         0.042869
 C         1.593735         0.244797        -0.132169
 C         1.508544        -1.284515         0.079296
 C        -0.561780        -0.403421         1.296466
 H        -2.831423        -2.188738         2.179953
 H        -0.524110        -3.041103        -0.286126
 H        -2.287860        -3.128357         0.021460
 H        -2.606088        -0.821201        -1.359704
 H         1.728495         0.796919        -1.019527
 H         2.124752         0.656051         0.786228
 H         1.754629        -2.016597        -0.670863
 H         1.802884        -1.520761         1.171585
 H        -0.026278        -0.871757         2.148139
 H        -0.985389         0.572680         1.622102
