19
Iteration:  2867
 O        -2.914867        -0.981505         1.624649
 C        -1.784259        -1.313657         0.813584
 C        -1.826780        -2.624307         0.025835
 C        -1.719068        -1.170030        -0.648050
 O        -0.507626        -0.666408        -1.146370
 C         0.378716        -0.492119         0.128398
 C         1.450119         0.556133         0.046072
 C         1.801074        -0.924651        -0.101236
 C        -0.618220        -0.817808         1.428297
 H        -2.701529        -1.560065         2.400163
 H        -0.924238        -3.304258        -0.127710
 H        -2.753442        -3.202313        -0.338383
 H        -2.571337        -0.744238        -1.121651
 H         1.207758         1.151787        -0.923950
 H         1.882168         1.192859         0.779470
 H         2.059590        -1.387587        -1.131037
 H         2.346120        -1.414459         0.781008
 H        -0.051474        -1.627747         1.975888
 H        -0.727676         0.112510         2.038300
