19
Iteration:  4211
 O        -2.902760        -0.967187         1.585677
 C        -1.812554        -1.351037         0.867102
 C        -1.813911        -2.535476        -0.095283
 C        -1.728677        -1.162985        -0.608611
 O        -0.499917        -0.746058        -1.006634
 C         0.364715        -0.565558         0.031261
 C         1.336966         0.518795         0.006822
 C         1.839532        -0.895256        -0.020580
 C        -0.499751        -0.747600         1.348272
 H        -2.961064        -1.625524         2.334361
 H        -0.943150        -3.257444        -0.131516
 H        -2.840290        -3.022101        -0.086923
 H        -2.698888        -0.927400        -1.248395
 H         1.543626         1.183608        -0.891645
 H         1.624174         1.034009         0.945772
 H         2.059590        -1.277230        -1.038442
 H         2.245630        -1.417915         0.948869
 H         0.095658        -1.275771         2.186613
 H        -0.730351         0.275389         1.667178
