19
Iteration:  4836
 O        -2.894706        -0.785492         1.571894
 C        -1.795984        -1.233799         0.779150
 C        -1.976985        -2.532414         0.096310
 C        -1.685638        -1.176644        -0.645682
 O        -0.372667        -0.933462        -1.072893
 C         0.334203        -0.628895         0.103718
 C         1.199452         0.706375         0.037533
 C         1.830415        -0.726170        -0.075322
 C        -0.385262        -1.126689         1.351679
 H        -2.932558        -1.531137         2.204840
 H        -1.136775        -3.252394         0.131375
 H        -2.985045        -2.943182        -0.079508
 H        -2.505857        -0.638359        -1.133742
 H         1.157591         1.237482        -0.980052
 H         1.242593         1.167274         0.978132
 H         2.265869        -1.055141        -1.089444
 H         2.411719        -1.069624         0.810895
 H        -0.006411        -2.100918         1.718180
 H        -0.284444        -0.282586         1.984820
