19
Iteration:  4386
 O        -3.004074        -1.249213         1.585915
 C        -1.749475        -1.292014         0.860622
 C        -1.411946        -2.523999        -0.020908
 C        -1.771000        -1.115111        -0.661094
 O        -0.594605        -0.403956        -1.030179
 C         0.271401        -0.379852         0.110082
 C         1.631986         0.276768        -0.152603
 C         1.532713        -1.205442         0.098502
 C        -0.593063        -0.476431         1.356115
 H        -3.118416        -2.096728         2.092802
 H        -0.401979        -2.963901        -0.047407
 H        -2.203679        -3.274815        -0.019144
 H        -2.591698        -0.891818        -1.221439
 H         1.515466         0.532744        -1.205443
 H         2.301296         0.819897         0.544844
 H         1.758224        -1.839185        -0.741996
 H         1.801091        -1.647335         1.032981
 H        -0.153021        -0.651886         2.366482
 H        -1.073871         0.474525         1.518541
