19
Iteration:  4094
 O        -3.015018        -0.967603         1.466651
 C        -1.827259        -1.232386         0.864886
 C        -1.754380        -2.507655         0.159719
 C        -1.663957        -1.211199        -0.665975
 O        -0.480370        -0.629551        -1.100280
 C         0.320537        -0.588273         0.159100
 C         1.400091         0.546934         0.025226
 C         1.774278        -0.959791        -0.215576
 C        -0.465586        -0.905621         1.488723
 H        -3.122960        -1.629509         2.208411
 H        -0.941456        -3.302259         0.272887
 H        -2.687425        -3.039101        -0.134651
 H        -2.555360        -1.029645        -1.425156
 H         1.217236         1.355730        -0.772885
 H         1.658634         1.024115         1.098233
 H         2.036747        -1.119115        -1.257137
 H         2.446214        -1.396375         0.559950
 H         0.132830        -1.666105         2.046651
 H        -0.478578         0.065619         2.044048
