19
Iteration:  3750
 O        -2.929180        -0.816054         1.485793
 C        -1.818227        -1.466361         0.884665
 C        -2.014785        -2.661779         0.017443
 C        -1.650284        -1.264017        -0.573015
 O        -0.437669        -0.678009        -1.092526
 C         0.364568        -0.568117         0.093444
 C         1.270492         0.601333         0.046623
 C         1.887122        -0.738368        -0.124852
 C        -0.383032        -0.996397         1.416515
 H        -2.971364        -1.208176         2.413808
 H        -1.195814        -3.357025        -0.002900
 H        -3.085817        -2.850325        -0.198113
 H        -2.464850        -0.768273        -1.005013
 H         1.192853         1.292038        -0.798655
 H         1.404276         1.140674         0.948080
 H         2.158763        -0.978652        -1.220529
 H         2.515545        -1.039970         0.678505
 H         0.144607        -1.717011         2.049600
 H        -0.508944        -0.077509         2.007365
