19
Iteration:  1347
 O        -2.756470        -0.673005         1.621337
 C        -1.782207        -1.322310         0.822204
 C        -2.167362        -2.536913        -0.046965
 C        -1.652007        -1.249549        -0.636358
 O        -0.391565        -1.085082        -0.995768
 C         0.374644        -0.586286         0.095690
 C         1.046172         0.732134         0.059020
 C         1.894987        -0.469445        -0.079798
 C        -0.249299        -1.284254         1.319528
 H        -3.208347        -1.354102         2.146105
 H        -1.656377        -3.449832         0.037370
 H        -3.208528        -2.686605        -0.182438
 H        -2.443479        -0.816986        -1.328534
 H         0.991540         1.236095        -0.982703
 H         1.191004         1.436066         0.949915
 H         2.272506        -0.419003        -1.162070
 H         2.429434        -0.747332         0.814244
 H        -0.007849        -2.328636         1.350228
 H        -0.368865        -0.736288         2.253542
