19
Iteration:   579
 O        -2.886754        -1.162163         1.678735
 C        -1.677741        -1.336107         0.833958
 C        -1.412491        -2.576612        -0.021793
 C        -1.703548        -1.203460        -0.581607
 O        -0.701859        -0.338143        -1.060077
 C         0.200820        -0.381580         0.094177
 C         1.495519         0.311299        -0.162474
 C         1.564198        -1.205534         0.070419
 C        -0.532393        -0.501843         1.379760
 H        -3.513205        -1.829500         1.344974
 H        -0.369340        -2.893364        -0.201892
 H        -2.158413        -3.452173        -0.273417
 H        -2.651989        -1.150078        -1.093815
 H         1.484440         0.496400        -1.204021
 H         2.016384         1.084950         0.438559
 H         1.798057        -1.871202        -0.878581
 H         1.896831        -1.674166         1.021011
 H         0.051295        -0.933680         2.141460
 H        -1.163429         0.376036         1.768292
