19
Iteration:  4932
 O        -2.833413        -0.781430         1.709317
 C        -1.771781        -1.341341         0.816366
 C        -1.967606        -2.504781         0.057245
 C        -1.727190        -1.154297        -0.656939
 O        -0.389379        -0.918473        -1.091565
 C         0.371862        -0.661510         0.082393
 C         1.116224         0.638191        -0.023276
 C         1.892171        -0.704274         0.013370
 C        -0.361627        -1.099507         1.326362
 H        -3.606585        -0.648955         1.142279
 H        -1.282341        -3.334934        -0.165874
 H        -2.982293        -2.879786        -0.120530
 H        -2.388145        -0.669820        -1.375563
 H         0.869813         1.025268        -1.101967
 H         1.114061         1.277121         0.864616
 H         2.485200        -1.036266        -0.903820
 H         2.412261        -0.971546         0.994932
 H         0.043151        -2.002033         1.722861
 H        -0.525639        -0.227823         1.983298
