19
Iteration:  4617charge 0 multiplicity 1
 O        -2.881800        -0.682300         1.465580
 C        -1.807490        -1.319839         0.881273
 C        -1.867872        -2.592776         0.000309
 C        -1.745499        -1.307323        -0.607391
 O        -0.475614        -0.800428        -0.981706
 C         0.411701        -0.574894         0.126038
 C         1.225243         0.590503         0.100508
 C         1.850854        -0.766260        -0.200210
 C        -0.442366        -1.050283         1.399426
 H        -3.099566        -1.326344         2.198437
 H        -0.973833        -3.208170        -0.003524
 H        -2.706584        -3.204605        -0.246721
 H        -2.593148        -0.934255        -1.232676
 H         1.130063         1.248216        -0.812498
 H         1.442646         1.174238         1.003551
 H         1.949463        -0.851771        -1.250796
 H         2.420596        -1.338399         0.466486
 H         0.221834        -1.834024         1.865958
 H        -0.379234        -0.336954         2.171000
