19
Iteration:  2011charge 0 multiplicity 1
 O        -2.870213        -0.959494         1.635997
 C        -1.791606        -1.374363         0.874659
 C        -1.853551        -2.600588        -0.025853
 C        -1.755028        -1.207794        -0.643862
 O        -0.536624        -0.612337        -1.058530
 C         0.359717        -0.565979         0.090554
 C         1.341736         0.563885         0.003663
 C         1.822698        -0.920750        -0.038329
 C        -0.450221        -0.829792         1.318231
 H        -3.222833        -1.602406         2.248280
 H        -0.913821        -3.180148        -0.208314
 H        -2.816318        -3.100223        -0.153142
 H        -2.514512        -0.639128        -1.283450
 H         1.289168         1.050696        -0.984953
 H         1.575710         1.104394         1.011838
 H         2.236113        -1.310062        -1.036779
 H         2.562108        -1.236903         0.781606
 H         0.119449        -1.480956         1.965293
 H        -0.704260         0.178329         1.773759
