19
Iteration:   490
 O        -3.013299        -1.167370         1.597108
 C        -1.733416        -1.352702         0.888508
 C        -1.402133        -2.605821         0.035522
 C        -1.736615        -1.226538        -0.634364
 O        -0.666696        -0.453984        -1.010760
 C         0.256146        -0.463797         0.032453
 C         1.459822         0.365470        -0.141016
 C         1.648030        -1.114632        -0.062640
 C        -0.539298        -0.506705         1.409803
 H        -2.828845        -0.587435         2.366778
 H        -0.346996        -2.906635         0.064435
 H        -2.125636        -3.354214        -0.025387
 H        -2.727943        -1.131772        -1.099282
 H         1.664643         0.781252        -1.216758
 H         1.704208         1.065982         0.693597
 H         1.873618        -1.475656        -1.089682
 H         2.205671        -1.627812         0.783770
 H         0.068551        -1.058731         2.181617
 H        -0.862600         0.499440         1.919382
