19
Iteration:  3845charge 0 multiplicity 1
 O        -2.926663        -1.034035         1.679702
 C        -1.774250        -1.355762         0.864400
 C        -1.799594        -2.645003        -0.106994
 C        -1.805053        -1.197479        -0.606712
 O        -0.567499        -0.662391        -1.079283
 C         0.383862        -0.405002         0.115205
 C         1.526898         0.574626        -0.035269
 C         1.788305        -0.956843         0.035104
 C        -0.511773        -0.737281         1.291568
 H        -3.506045        -1.769877         1.961811
 H        -0.926989        -3.259851        -0.165367
 H        -2.840905        -2.988636        -0.203389
 H        -2.587822        -0.944237        -1.169209
 H         1.873117         0.891543        -1.078472
 H         1.980303         1.272579         0.664911
 H         2.064911        -1.622526        -0.829175
 H         2.131870        -1.234378         0.983833
 H         0.075548        -1.303248         1.995248
 H        -0.871553         0.186157         1.848912
