19
Iteration:  2189charge 0 multiplicity 1
 O        -2.979856        -1.228835         1.600061
 C        -1.825822        -1.338606         0.859845
 C        -1.494297        -2.596120         0.037872
 C        -1.743654        -1.213549        -0.584586
 O        -0.650343        -0.334628        -0.982198
 C         0.270250        -0.239530         0.075991
 C         1.772866         0.296954        -0.129830
 C         1.525168        -1.193321        -0.024261
 C        -0.602221        -0.535188         1.326618
 H        -3.097286        -2.088825         1.988522
 H        -0.456784        -2.879101        -0.127981
 H        -2.225880        -3.316920        -0.257196
 H        -2.620643        -1.046600        -1.256395
 H         1.982769         0.744265        -1.105983
 H         2.286208         0.942911         0.530204
 H         1.675038        -1.802497        -0.901978
 H         1.829900        -1.586564         0.898732
 H        -0.001253        -1.108488         2.168018
 H        -0.939123         0.410086         1.744475
