19
Iteration:   427charge 0 multiplicity 1
 O        -2.951275        -1.037972         1.590315
 C        -1.756012        -1.325471         0.941341
 C        -1.735260        -2.657170         0.107603
 C        -1.758743        -1.237729        -0.564664
 O        -0.565043        -0.761805        -1.062897
 C         0.348150        -0.547818         0.048947
 C         1.421775         0.614256        -0.020777
 C         1.772739        -0.893753        -0.176107
 C        -0.452332        -0.616550         1.332010
 H        -3.491239        -1.851132         1.404394
 H        -0.790095        -3.344429         0.077925
 H        -2.748336        -3.118876         0.099191
 H        -2.595674        -0.669818        -0.933381
 H         1.217259         1.336005        -0.848689
 H         1.843384         1.066099         0.857368
 H         2.057839        -1.248109        -1.192186
 H         2.364989        -1.406555         0.675781
 H         0.264584        -1.002069         2.008761
 H        -0.758963         0.409744         1.695434
