19
Iteration:  1123
 O        -2.886405        -0.804851         1.617609
 C        -1.810647        -1.402937         0.874077
 C        -2.074705        -2.504880        -0.026159
 C        -1.665763        -1.109067        -0.561476
 O        -0.369798        -1.047308        -1.048423
 C         0.413635        -0.575152         0.095463
 C         1.111637         0.724847        -0.002214
 C         1.923433        -0.618486        -0.141120
 C        -0.316748        -1.137895         1.375147
 H        -3.384281        -1.582612         1.961139
 H        -1.202330        -3.221818        -0.210431
 H        -3.091170        -2.875807        -0.182329
 H        -2.517993        -0.483124        -0.972843
 H         0.880228         1.156667        -0.954538
 H         1.130712         1.469601         0.767416
 H         2.100319        -0.842733        -1.175479
 H         2.630729        -0.923489         0.563010
 H         0.247395        -1.876000         1.935088
 H        -0.466813        -0.302890         2.101595
