19
Iteration:  3697
 O        -2.902149        -0.840870         1.737005
 C        -1.828080        -1.367462         0.864817
 C        -1.970389        -2.500015        -0.063823
 C        -1.725111        -1.151601        -0.681619
 O        -0.375088        -1.005678        -1.122223
 C         0.417796        -0.568722         0.025487
 C         1.210702         0.740433         0.070070
 C         1.834398        -0.712426        -0.027983
 C        -0.368705        -1.023061         1.313826
 H        -3.399695        -1.644310         2.086380
 H        -1.136089        -3.208196        -0.130078
 H        -3.031272        -2.780727        -0.056263
 H        -2.439353        -0.597395        -1.294914
 H         1.211967         1.239524        -0.907555
 H         1.209121         1.337821         0.920838
 H         2.476424        -1.087667        -0.897516
 H         2.207677        -1.119565         0.903777
 H         0.122534        -1.937915         1.740061
 H        -0.438736        -0.258037         2.089981
