19
Iteration:  1843charge 0 multiplicity 1
 O        -2.973258        -1.166420         1.657914
 C        -1.767583        -1.342375         0.880396
 C        -1.676250        -2.591859        -0.016180
 C        -1.747861        -1.178197        -0.632089
 O        -0.534721        -0.517383        -1.126675
 C         0.314007        -0.417576         0.109950
 C         1.548177         0.438046         0.009212
 C         1.669468        -1.094735        -0.085261
 C        -0.561021        -0.527437         1.353735
 H        -3.045745        -1.912511         2.257384
 H        -0.724226        -3.251733        -0.057417
 H        -2.562480        -3.286683        -0.121210
 H        -2.725414        -0.793993        -1.097445
 H         1.668386         0.847552        -0.973578
 H         2.011901         0.955300         0.896879
 H         1.974094        -1.570440        -1.034377
 H         2.185829        -1.566701         0.766524
 H         0.060771        -1.031622         2.123411
 H        -0.880314         0.535400         1.602781
