19
Iteration:   384
 O        -2.826156        -0.961675         1.853431
 C        -1.830118        -1.268550         0.794342
 C        -1.797630        -2.630466         0.062597
 C        -1.707924        -1.271999        -0.703886
 O        -0.460360        -0.801334        -1.133029
 C         0.308727        -0.505702         0.065250
 C         1.288998         0.598572        -0.004010
 C         1.753856        -0.801782        -0.101496
 C        -0.425331        -0.759705         1.295942
 H        -3.699659        -1.353915         1.597420
 H        -0.896468        -3.418261         0.293685
 H        -2.730045        -3.268186        -0.149909
 H        -2.508643        -1.148808        -1.403351
 H         1.268999         1.160078        -0.955696
 H         1.543103         1.161192         0.867083
 H         1.998249        -1.243736        -1.052390
 H         2.346842        -1.181880         0.847028
 H        -0.039859        -1.552576         1.913082
 H        -0.590563         0.140151         1.917930
