19
Iteration:  2059charge 0 multiplicity 1
 O        -3.091332        -0.957519         1.519645
 C        -1.808588        -1.328641         0.890757
 C        -1.609806        -2.585606        -0.019760
 C        -1.771358        -1.207029        -0.536742
 O        -0.491077        -0.614479        -1.017872
 C         0.305879        -0.494367         0.159411
 C         1.506168         0.511160        -0.030495
 C         1.701400        -0.934323        -0.216471
 C        -0.464970        -0.821552         1.411823
 H        -3.163659        -1.552276         2.299423
 H        -0.575550        -2.883461         0.034482
 H        -2.332536        -3.404540        -0.208142
 H        -2.621662        -0.884053        -0.989689
 H         1.479217         1.267020        -0.831138
 H         1.876891         0.715518         0.903108
 H         1.716975        -1.373672        -1.182971
 H         2.391015        -1.451545         0.398978
 H         0.109674        -1.597631         2.017965
 H        -0.686866         0.056904         1.926773
