19
Iteration:  3331
 O        -2.889972        -0.815167         1.585639
 C        -1.798870        -1.385263         0.885200
 C        -2.115865        -2.527145        -0.109824
 C        -1.708022        -1.075124        -0.587745
 O        -0.380208        -1.100433        -1.048912
 C         0.379475        -0.537497         0.076660
 C         1.136875         0.771545        -0.067017
 C         1.854403        -0.650269         0.059774
 C        -0.264778        -1.109757         1.395354
 H        -2.903079        -1.386730         2.338252
 H        -1.316703        -3.138564        -0.450086
 H        -3.076107        -2.854210        -0.467831
 H        -2.408335        -0.452619        -1.064048
 H         1.232062         1.276556        -1.032160
 H         1.369371         1.349797         0.756921
 H         2.256697        -1.112369        -0.863398
 H         2.451566        -0.938996         0.838535
 H         0.212742        -2.113290         1.579489
 H        -0.106269        -0.416276         2.251225
