19
Iteration:   556
 O        -2.836474        -1.275692         1.851913
 C        -1.774026        -1.330723         0.811627
 C        -1.333425        -2.491382         0.024239
 C        -1.753118        -1.191117        -0.723058
 O        -0.645867        -0.366687        -1.038916
 C         0.230377        -0.460759         0.101607
 C         1.575337         0.305285        -0.114498
 C         1.468927        -1.185647        -0.025658
 C        -0.641157        -0.445806         1.283658
 H        -3.625743        -1.318213         1.299329
 H        -0.283610        -2.824313         0.045058
 H        -2.052315        -3.348885        -0.124559
 H        -2.468181        -1.132197        -1.546809
 H         1.749622         0.805836        -1.119047
 H         2.017520         0.799940         0.770257
 H         1.766065        -1.942676        -0.876479
 H         1.793222        -1.548496         0.938527
 H        -0.218849        -0.799367         2.210834
 H        -1.050143         0.600346         1.413567
