19
Iteration:  2515
 O        -2.898257        -1.026558         1.648520
 C        -1.842426        -1.320274         0.883943
 C        -1.761149        -2.582851        -0.036942
 C        -1.738732        -1.229539        -0.708017
 O        -0.504433        -0.561597        -1.022775
 C         0.264123        -0.408100         0.123740
 C         1.526578         0.502755        -0.085349
 C         1.731451        -0.954773        -0.052686
 C        -0.497352        -0.817225         1.395951
 H        -3.121518        -1.851537         2.082311
 H        -0.838854        -3.130611         0.116675
 H        -2.646116        -3.084399        -0.296600
 H        -2.730646        -1.030021        -1.453440
 H         1.542145         0.954655        -1.064016
 H         1.747672         1.234533         0.706530
 H         1.771264        -1.562399        -0.883069
 H         2.238259        -1.446865         0.720833
 H         0.100549        -1.521337         1.924641
 H        -0.622012        -0.013256         2.190090
