19
Iteration:   790
 O        -2.917733        -0.871360         1.705478
 C        -1.794162        -1.415724         0.860717
 C        -1.991102        -2.609725        -0.097496
 C        -1.794480        -1.285638        -0.608343
 O        -0.490822        -0.738716        -1.059759
 C         0.403918        -0.561168         0.030830
 C         1.281921         0.661570        -0.063247
 C         1.904673        -0.731962         0.058577
 C        -0.320469        -0.946959         1.305500
 H        -3.121189        -1.589509         2.335329
 H        -1.190900        -3.228254        -0.313579
 H        -2.952754        -3.170043        -0.087971
 H        -2.645077        -0.851728        -1.271296
 H         1.393427         0.973821        -1.070783
 H         1.292125         1.523933         0.654839
 H         2.445880        -0.919166        -0.859721
 H         2.327343        -1.122804         1.002900
 H         0.207400        -1.732641         1.834576
 H        -0.315430        -0.038404         1.909001
