19
Iteration:  3666
 O        -2.812148        -0.857094         1.578268
 C        -1.751305        -1.443394         0.775829
 C        -2.175078        -2.537524        -0.051663
 C        -1.722462        -1.147177        -0.668810
 O        -0.389324        -0.924229        -1.052510
 C         0.472057        -0.605840         0.165918
 C         1.149995         0.709805         0.014929
 C         1.973558        -0.631244        -0.090829
 C        -0.420942        -1.020459         1.452114
 H        -3.313677        -1.527999         2.012014
 H        -1.552631        -3.418092        -0.167894
 H        -3.190050        -2.834915         0.186732
 H        -2.589950        -0.492166        -1.088382
 H         0.885397         1.087353        -0.984966
 H         1.367070         1.258372         0.874467
 H         2.468817        -1.147688        -0.989710
 H         2.548272        -0.814518         0.758892
 H         0.066743        -1.882233         1.985910
 H        -0.576374        -0.211972         2.128326
