19
Iteration:  1932charge 0 multiplicity 1
 O        -3.080692        -0.950047         1.568422
 C        -1.853528        -1.412129         0.926890
 C        -1.833970        -2.641699        -0.053858
 C        -1.764497        -1.207808        -0.574358
 O        -0.491761        -0.604586        -0.974600
 C         0.434774        -0.537447         0.110342
 C         1.416571         0.567462        -0.026659
 C         1.932113        -0.896978        -0.217245
 C        -0.397398        -0.830100         1.382439
 H        -3.412880        -1.515100         2.265284
 H        -1.023927        -3.272732        -0.109454
 H        -2.779877        -3.122551        -0.097010
 H        -2.483857        -0.786350        -1.201296
 H         1.326045         1.201978        -0.907903
 H         1.597905         1.165414         0.805097
 H         2.005510        -1.386978        -1.137876
 H         2.484141        -1.214949         0.619308
 H         0.103919        -1.434833         2.101768
 H        -0.679285         0.154579         1.892096
