19
Iteration:   480
 O        -2.981604        -1.093391         1.598594
 C        -1.822675        -1.327839         0.885058
 C        -1.403353        -2.571180         0.051817
 C        -1.735654        -1.265191        -0.611148
 O        -0.643415        -0.445051        -0.985457
 C         0.254551        -0.465559         0.080092
 C         1.456320         0.426893        -0.241831
 C         1.656831        -1.052896        -0.042048
 C        -0.552756        -0.710823         1.409703
 H        -2.763338        -0.753420         2.503327
 H        -0.368290        -2.979112        -0.034901
 H        -2.131166        -3.352228        -0.061643
 H        -2.350457        -1.217521        -1.488295
 H         1.589060         0.872437        -1.291073
 H         1.835036         1.025811         0.589803
 H         1.871284        -1.713102        -0.938657
 H         2.071590        -1.469811         0.926945
 H         0.084512        -1.144714         2.171447
 H        -0.903294         0.357206         1.736042
