19
Iteration:  2028
 O        -3.025272        -1.041898         1.519181
 C        -1.755986        -1.284065         0.832886
 C        -1.865230        -2.597346         0.037419
 C        -1.747227        -1.242981        -0.618417
 O        -0.555031        -0.554542        -0.983822
 C         0.367437        -0.554503         0.092530
 C         1.404969         0.524317        -0.024970
 C         1.899818        -0.897151        -0.154305
 C        -0.366739        -0.785624         1.421123
 H        -3.011576        -1.783221         2.146116
 H        -1.299847        -3.466161         0.153460
 H        -2.911281        -2.867705        -0.019990
 H        -2.611529        -1.028992        -1.165222
 H         1.403147         1.241544        -0.851097
 H         1.617094         0.941332         0.853863
 H         2.107064        -1.254463        -1.134510
 H         2.316373        -1.323160         0.694279
 H         0.110196        -1.581616         2.049377
 H        -0.492830         0.128550         1.970436
