19
Iteration:   182charge 0 multiplicity 1
 O        -2.986688        -1.000883         1.632479
 C        -1.788148        -1.295829         0.831050
 C        -1.808183        -2.690577         0.152798
 C        -1.749691        -1.336366        -0.652451
 O        -0.490513        -0.646400        -1.056834
 C         0.377702        -0.544794         0.110667
 C         1.387558         0.576141         0.054513
 C         1.835751        -0.845656        -0.290977
 C        -0.461746        -0.680744         1.363175
 H        -3.188066        -1.932834         1.866827
 H        -0.923028        -3.225502         0.247918
 H        -2.672565        -3.221352         0.215405
 H        -2.574263        -0.924128        -1.225262
 H         1.385951         1.304590        -0.748510
 H         1.678047         1.054797         0.972453
 H         1.816294        -1.075286        -1.290820
 H         2.562196        -1.461478         0.298317
 H        -0.032580        -1.239359         2.144612
 H        -0.748220         0.301020         1.784715
