19
Iteration:  4189
 O        -2.983389        -0.976584         1.737409
 C        -1.827377        -1.277047         0.845175
 C        -1.776369        -2.535406        -0.058546
 C        -1.790182        -1.171009        -0.708628
 O        -0.465541        -0.815628        -1.177242
 C         0.333398        -0.526216         0.000313
 C         1.414413         0.548643         0.078520
 C         1.804821        -0.883501         0.072817
 C        -0.466371        -0.835211         1.302286
 H        -2.619043        -1.399006         2.514347
 H        -0.821025        -3.123970        -0.260899
 H        -2.711325        -3.165540        -0.029992
 H        -2.620048        -0.431986        -1.171063
 H         1.341138         1.066503        -0.900748
 H         1.596671         1.386781         0.811383
 H         2.219776        -1.271691        -0.892473
 H         2.455963        -1.315777         0.955997
 H        -0.104392        -1.610712         2.083089
 H        -0.680247         0.101030         1.840653
