19
Iteration:  4005
 O        -3.045974        -1.287222         1.616009
 C        -1.862698        -1.206447         0.875898
 C        -1.552529        -2.512904         0.033794
 C        -1.731655        -1.128725        -0.638640
 O        -0.533529        -0.479789        -1.090487
 C         0.358907        -0.462499         0.125413
 C         1.573590         0.334325        -0.134759
 C         1.711962        -1.125980        -0.029062
 C        -0.633980        -0.484053         1.362639
 H        -3.005056        -2.059590         2.243179
 H        -0.589410        -3.011790         0.150217
 H        -2.456995        -3.142100         0.048049
 H        -2.528416        -0.743570        -1.236953
 H         1.628675         0.784068        -1.138655
 H         2.094524         0.855749         0.772833
 H         1.915095        -1.747504        -0.937284
 H         2.079033        -1.622942         0.835021
 H        -0.092993        -1.041143         2.184754
 H        -0.955152         0.450714         1.824228
