19
Iteration:   928
 O        -2.772389        -0.866531         1.675000
 C        -1.800266        -1.343807         0.848704
 C        -1.938798        -2.529779        -0.117074
 C        -1.821931        -1.162568        -0.640146
 O        -0.467304        -0.911208        -1.061044
 C         0.320176        -0.588603         0.099498
 C         1.207368         0.653704        -0.096500
 C         1.902902        -0.641461         0.056173
 C        -0.416905        -1.056113         1.343222
 H        -2.629835        -1.575901         2.361086
 H        -1.066446        -3.172502        -0.240042
 H        -2.939242        -3.096159        -0.238345
 H        -2.621321        -0.503880        -1.099125
 H         1.075850         1.010484        -1.079172
 H         1.346830         1.346252         0.669397
 H         2.346020        -1.078731        -0.798236
 H         2.420147        -0.718718         1.037489
 H         0.083846        -2.000763         1.704151
 H        -0.422356        -0.336680         2.232817
