19
Iteration:  1851
 O        -2.992503        -1.109522         1.668243
 C        -1.809253        -1.374418         0.874591
 C        -1.680895        -2.627882        -0.035116
 C        -1.812464        -1.196406        -0.649143
 O        -0.587704        -0.501269        -1.121706
 C         0.347550        -0.383835         0.070981
 C         1.575514         0.429087         0.024577
 C         1.778381        -1.072314        -0.048581
 C        -0.536460        -0.593605         1.325229
 H        -3.016804        -1.867463         2.271411
 H        -0.600510        -3.097655         0.087392
 H        -2.623918        -3.232775         0.170061
 H        -2.769131        -0.920657        -1.148328
 H         1.796037         0.882527        -1.028064
 H         2.050976         0.950649         0.868579
 H         2.209272        -1.241976        -1.141583
 H         2.300878        -1.707008         0.673125
 H        -0.153245        -0.990816         2.336235
 H        -1.078492         0.244849         1.713172
