19
Iteration:  2494
 O        -2.915732        -0.986658         1.669088
 C        -1.748817        -1.296198         0.815014
 C        -1.788747        -2.624896        -0.027283
 C        -1.666421        -1.100662        -0.660071
 O        -0.467132        -0.646164        -1.081100
 C         0.346007        -0.557989         0.148684
 C         1.291241         0.568276         0.004233
 C         1.692028        -1.006339        -0.088581
 C        -0.468439        -0.816585         1.325612
 H        -2.977032        -1.848348         2.168107
 H        -0.917786        -3.261817        -0.001436
 H        -2.791295        -2.954524        -0.022843
 H        -2.767858        -0.795867        -1.095526
 H         1.310600         1.053651        -0.945565
 H         1.755394         1.118471         0.811906
 H         2.182443        -1.296015        -0.950607
 H         2.172090        -1.128246         0.849672
 H         0.037510        -1.458762         2.009042
 H        -0.572484         0.119804         1.856680
