19
Iteration:  2468charge 0 multiplicity 1
 O        -2.992568        -0.951774         1.581329
 C        -1.761059        -1.375726         0.926852
 C        -1.827951        -2.523842        -0.056101
 C        -1.831475        -1.141193        -0.638684
 O        -0.595428        -0.783268        -1.046786
 C         0.432337        -0.598456         0.103862
 C         1.375962         0.585345         0.047313
 C         1.956095        -0.866396        -0.113040
 C        -0.450659        -0.820699         1.318275
 H        -3.162656        -1.533497         2.381234
 H        -0.897267        -2.976392        -0.388956
 H        -2.797871        -3.087599         0.002037
 H        -2.663617        -0.902371        -1.085157
 H         1.652556         1.343929        -0.754691
 H         1.372446         0.935746         1.093886
 H         2.253122        -1.072193        -1.185692
 H         2.601507        -1.357245         0.656217
 H         0.106409        -1.455144         2.044504
 H        -0.593846         0.162429         1.919944
