19
Iteration:   446
 O        -2.965474        -1.017949         1.580326
 C        -1.770088        -1.369394         0.921707
 C        -1.695538        -2.672764         0.128952
 C        -1.701467        -1.272154        -0.620913
 O        -0.536440        -0.579393        -1.028106
 C         0.314079        -0.382566         0.100452
 C         1.422312         0.521295        -0.195515
 C         1.715327        -0.934865        -0.136798
 C        -0.468878        -0.720821         1.420062
 H        -3.269513        -1.863674         1.978077
 H        -0.775455        -3.222924         0.155001
 H        -2.634642        -3.077692         0.016650
 H        -2.473276        -1.220375        -1.378337
 H         1.684313         0.977312        -1.213285
 H         1.638227         1.243104         0.667849
 H         1.837910        -1.395873        -1.072684
 H         2.274173        -1.392882         0.768988
 H        -0.037081        -1.363765         2.206224
 H        -0.816777         0.264713         1.923055
