19
Iteration:  3979charge 0 multiplicity 1
 O        -3.068530        -1.207203         1.562065
 C        -1.834747        -1.261657         0.902060
 C        -1.376228        -2.486789         0.032733
 C        -1.686095        -1.256836        -0.635261
 O        -0.649981        -0.361245        -0.982993
 C         0.347159        -0.427489         0.114253
 C         1.596670         0.348461        -0.112393
 C         1.559964        -1.246365        -0.102718
 C        -0.581386        -0.495777         1.400678
 H        -3.335856        -2.068165         2.000302
 H        -0.361125        -2.823201         0.251168
 H        -1.997846        -3.353381        -0.147264
 H        -2.471420        -0.980696        -1.402165
 H         1.860100         0.720225        -1.109805
 H         2.077263         0.706644         0.714480
 H         1.678911        -1.749915        -1.056485
 H         1.927773        -1.845817         0.789226
 H         0.009668        -0.694686         2.314160
 H        -1.018949         0.520882         1.493265
