19
Iteration:  4362charge 0 multiplicity 1
 O        -2.926299        -1.326361         1.635408
 C        -1.762994        -1.192119         0.861933
 C        -1.428729        -2.460337        -0.027589
 C        -1.736110        -1.109500        -0.760710
 O        -0.608328        -0.384210        -1.028121
 C         0.237123        -0.522533         0.089477
 C         1.510507         0.223046        -0.167564
 C         1.563053        -1.271668         0.191758
 C        -0.602697        -0.322925         1.364745
 H        -3.042250        -2.236154         1.998699
 H        -0.384814        -2.820550         0.009816
 H        -2.105588        -3.295503        -0.321571
 H        -2.571113        -0.780522        -1.405750
 H         1.624794         0.514425        -1.259581
 H         1.743552         0.837978         0.597612
 H         1.936520        -1.821538        -0.738915
 H         2.129435        -1.625536         1.091667
 H        -0.090778        -0.770769         2.241379
 H        -0.868466         0.655342         1.749308
