19
Iteration:  1112charge 0 multiplicity 1
 O        -2.830990        -0.869936         1.615163
 C        -1.746793        -1.292333         0.897990
 C        -2.070959        -2.499683        -0.075894
 C        -1.776649        -1.136050        -0.602062
 O        -0.330990        -0.976167        -1.094003
 C         0.482541        -0.734713         0.162512
 C         1.041938         0.687192        -0.025980
 C         1.905083        -0.583438        -0.151155
 C        -0.406720        -1.066473         1.424375
 H        -3.087172        -1.554405         2.230830
 H        -1.209641        -3.254342         0.003932
 H        -3.086763        -2.883104        -0.079552
 H        -2.497129        -0.449247        -1.171067
 H         0.778894         1.117817        -0.961645
 H         1.314791         1.306513         0.810208
 H         2.268034        -0.917818        -1.092446
 H         2.515698        -0.869563         0.652258
 H        -0.023264        -1.916026         2.002183
 H        -0.326268        -0.135216         2.008793
