19
Iteration:  3212
 O        -2.872878        -0.824353         1.593228
 C        -1.785695        -1.352323         0.806142
 C        -1.983475        -2.675689        -0.098278
 C        -1.737802        -1.188825        -0.644463
 O        -0.472752        -0.767874        -1.033299
 C         0.379019        -0.603985         0.166188
 C         1.267608         0.629010        -0.002502
 C         1.912565        -0.733698        -0.098452
 C        -0.400481        -0.966826         1.443360
 H        -3.007656        -1.291026         2.461030
 H        -1.276884        -3.511270         0.053917
 H        -2.955825        -3.175152        -0.336620
 H        -2.502926        -0.666559        -1.239942
 H         0.957866         1.077423        -0.927239
 H         1.463117         1.178566         0.942787
 H         2.206143        -1.005386        -1.152856
 H         2.483515        -1.284826         0.610876
 H         0.055759        -1.740927         2.094464
 H        -0.521627         0.013592         1.970313
