19
Iteration:  2375charge 0 multiplicity 1
 O        -3.006343        -0.897712         1.540979
 C        -1.802749        -1.299692         0.892873
 C        -1.902517        -2.607222        -0.056124
 C        -1.740483        -1.220015        -0.563393
 O        -0.515784        -0.760317        -1.063428
 C         0.385691        -0.532883         0.056513
 C         1.353452         0.573885         0.086860
 C         1.843906        -0.834293        -0.109533
 C        -0.297521        -0.866528         1.355582
 H        -3.036052        -1.570650         2.222604
 H        -0.988064        -3.176959        -0.174665
 H        -2.909307        -3.005841        -0.058826
 H        -2.672257        -0.669882        -1.115328
 H         1.370298         1.247525        -0.817758
 H         1.449976         1.015503         1.009670
 H         2.136948        -1.240258        -1.085293
 H         2.219096        -1.239572         0.789634
 H         0.176850        -1.802148         1.772574
 H        -0.285103        -0.177000         2.159981
