19
Iteration:  2336
 O        -2.913240        -0.915310         1.682793
 C        -1.853154        -1.333032         0.840977
 C        -1.897709        -2.618782        -0.085332
 C        -1.752168        -1.194007        -0.681855
 O        -0.439695        -0.741986        -1.041408
 C         0.368088        -0.558962         0.142354
 C         1.357914         0.561274         0.027680
 C         1.883307        -0.860846        -0.139817
 C        -0.477093        -0.816912         1.377748
 H        -2.991016        -1.527654         2.452616
 H        -0.962996        -3.247259        -0.199111
 H        -2.807172        -3.093339        -0.520079
 H        -2.489933        -0.739182        -1.204593
 H         1.219043         1.329611        -0.805252
 H         1.582356         1.141996         0.960082
 H         1.965724        -1.343014        -1.161555
 H         2.428969        -1.317725         0.766214
 H         0.008153        -1.568654         2.027764
 H        -0.666940         0.145643         1.942988
