19
Iteration:  4833charge 0 multiplicity 1
 O        -2.915306        -0.765631         1.583058
 C        -1.806825        -1.237605         0.783581
 C        -1.950124        -2.544652         0.097143
 C        -1.705395        -1.181284        -0.645908
 O        -0.383034        -0.931901        -1.085587
 C         0.347593        -0.617666         0.097028
 C         1.219621         0.690203         0.015264
 C         1.857799        -0.722386        -0.071937
 C        -0.406929        -1.152980         1.356340
 H        -2.892735        -1.441409         2.264883
 H        -1.146360        -3.236925         0.055039
 H        -2.886329        -2.981175        -0.129324
 H        -2.462872        -0.701489        -1.137688
 H         1.172500         1.318959        -0.875425
 H         1.238127         1.260758         1.006129
 H         2.227527        -1.000625        -1.024568
 H         2.332163        -1.007844         0.776599
 H        -0.064598        -2.073220         1.693723
 H        -0.222672        -0.372099         2.129579
