19
Iteration:   748charge 0 multiplicity 1
 O        -2.879700        -1.058194         1.728985
 C        -1.761880        -1.244330         0.827890
 C        -1.834974        -2.511404        -0.058203
 C        -1.811077        -1.132634        -0.704440
 O        -0.402283        -0.939549        -1.009355
 C         0.372516        -0.550665         0.145446
 C         1.274675         0.611663        -0.012137
 C         1.775354        -0.789749        -0.137889
 C        -0.420946        -0.772676         1.389166
 H        -3.391399        -1.858494         1.656549
 H        -1.029925        -3.157295        -0.254338
 H        -2.801265        -3.063237        -0.075983
 H        -2.538604        -0.511145        -1.300828
 H         1.188501         1.164589        -0.965016
 H         1.491649         1.334918         0.896063
 H         1.914659        -1.160922        -1.156484
 H         2.407920        -1.396836         0.500479
 H         0.030287        -1.473560         2.183576
 H        -0.688678         0.164980         1.913435
