19
Iteration:  4169charge 0 multiplicity 1
 O        -2.876322        -1.018881         1.608726
 C        -1.820155        -1.270432         0.838384
 C        -1.883544        -2.524003         0.015943
 C        -1.776840        -1.161629        -0.696045
 O        -0.475707        -0.744329        -1.083681
 C         0.359577        -0.536462         0.075252
 C         1.326593         0.586597        -0.024646
 C         1.775831        -0.916773         0.029981
 C        -0.406440        -0.818811         1.332117
 H        -2.703633        -1.381993         2.481344
 H        -1.004143        -3.213430         0.090387
 H        -2.874446        -2.983508        -0.216095
 H        -2.495738        -0.986945        -1.600356
 H         1.686908         1.270353        -0.870774
 H         1.371161         1.201647         0.907209
 H         2.381128        -1.428601        -0.672848
 H         2.163447        -1.328112         0.960427
 H        -0.047464        -1.736848         1.852273
 H        -0.560038        -0.092899         2.110919
