19
Iteration:   398
 O        -2.827674        -0.996408         1.779315
 C        -1.824328        -1.276669         0.884737
 C        -1.720500        -2.527989         0.061727
 C        -1.786073        -1.282990        -0.684265
 O        -0.512792        -0.872107        -1.093039
 C         0.369813        -0.621227         0.006673
 C         1.317244         0.637321         0.047030
 C         1.843400        -0.835200        -0.164244
 C        -0.557078        -0.705647         1.326443
 H        -3.648294        -1.437727         1.475734
 H        -0.737345        -3.104667         0.034701
 H        -2.741634        -3.039894         0.066336
 H        -2.579911        -0.923804        -1.367542
 H         1.349608         1.327282        -0.755534
 H         1.415284         1.103697         0.990973
 H         2.247964        -0.939509        -1.222159
 H         2.357090        -1.389649         0.521961
 H         0.011286        -1.229870         2.193583
 H        -0.744192         0.278461         1.651991
