19
Iteration:  1938charge 0 multiplicity 1
 O        -3.073966        -0.966569         1.579421
 C        -1.833982        -1.442352         0.910836
 C        -1.878311        -2.595206        -0.005434
 C        -1.742844        -1.217939        -0.567685
 O        -0.494930        -0.584533        -1.005515
 C         0.444815        -0.594065         0.090344
 C         1.410539         0.588460        -0.054673
 C         1.942304        -0.872550        -0.167369
 C        -0.430816        -0.797334         1.392758
 H        -3.409235        -1.588659         2.276080
 H        -1.003002        -3.369812        -0.054064
 H        -2.876845        -3.054392        -0.307322
 H        -2.575867        -0.768388        -1.193064
 H         1.347477         1.060761        -1.029732
 H         1.639174         1.072629         0.967503
 H         2.154409        -1.200349        -1.229495
 H         2.602173        -1.362492         0.642620
 H         0.129575        -1.537458         2.055586
 H        -0.660179         0.150354         1.807615
