19
Iteration:  4615charge 0 multiplicity 1
 O        -2.881586        -0.672670         1.468977
 C        -1.812831        -1.335310         0.883938
 C        -1.870512        -2.609378        -0.023668
 C        -1.752725        -1.310051        -0.591909
 O        -0.483954        -0.801762        -0.979385
 C         0.418204        -0.581259         0.130031
 C         1.244292         0.592553         0.101282
 C         1.852663        -0.763178        -0.196985
 C        -0.436455        -1.038157         1.397839
 H        -3.163702        -1.288998         2.177209
 H        -0.939548        -3.197471        -0.015044
 H        -2.713920        -3.261104        -0.217456
 H        -2.648587        -0.909456        -1.264763
 H         1.185403         1.281482        -0.866198
 H         1.433055         1.221742         0.998231
 H         1.946705        -0.795521        -1.280886
 H         2.423875        -1.321543         0.472527
 H         0.213158        -1.904167         1.866087
 H        -0.410467        -0.283788         2.191893
