19
Iteration:   458
 O        -2.972318        -1.018616         1.619195
 C        -1.832186        -1.340456         0.802466
 C        -1.603895        -2.705154         0.129703
 C        -1.668339        -1.258581        -0.646580
 O        -0.566020        -0.499610        -1.027321
 C         0.284356        -0.410043         0.130217
 C         1.451534         0.509770        -0.234710
 C         1.692809        -0.984199        -0.052902
 C        -0.525574        -0.715531         1.401903
 H        -2.984012        -1.595411         2.388639
 H        -0.693280        -3.313302         0.375165
 H        -2.370378        -3.414653        -0.069460
 H        -2.526814        -0.988349        -1.242887
 H         1.221173         0.895356        -1.304266
 H         1.981772         1.178846         0.474091
 H         1.830874        -1.576949        -0.981634
 H         2.363023        -1.380852         0.809368
 H         0.187071        -1.367155         1.857256
 H        -0.800292         0.123565         2.162671
