19
Iteration:  4691charge 0 multiplicity 1
 O        -2.760937        -0.814624         1.615135
 C        -1.722128        -1.431355         0.876201
 C        -2.071631        -2.538420        -0.104129
 C        -1.750554        -1.167648        -0.650666
 O        -0.387254        -0.985513        -1.116263
 C         0.362154        -0.492241         0.132183
 C         1.246977         0.651729        -0.030078
 C         1.780597        -0.744548         0.027039
 C        -0.391191        -0.958730         1.397049
 H        -3.331893        -1.472050         2.029153
 H        -1.280636        -3.241653        -0.411132
 H        -3.041750        -3.037698        -0.158762
 H        -2.457577        -0.284542        -0.960407
 H         1.149579         1.089403        -1.111993
 H         1.429459         1.383408         0.846608
 H         2.004675        -1.240590        -0.881855
 H         2.201547        -1.011530         0.972330
 H         0.108001        -1.659090         2.126799
 H        -0.660351        -0.146776         2.094262
