19
Iteration:  3019
 O        -2.935223        -1.341890         1.663366
 C        -1.742816        -1.197055         0.822958
 C        -1.483972        -2.492834        -0.034969
 C        -1.652416        -1.179279        -0.669910
 O        -0.593256        -0.380430        -1.020707
 C         0.294187        -0.324665         0.096029
 C         1.589312         0.250922        -0.099805
 C         1.424614        -1.273713        -0.001603
 C        -0.646028        -0.406926         1.373291
 H        -2.857417        -2.152686         2.187078
 H        -0.409205        -2.855146        -0.168647
 H        -2.383123        -3.112841        -0.224897
 H        -2.587842        -1.043687        -1.326964
 H         1.728778         0.697549        -1.077541
 H         2.240963         0.722807         0.696036
 H         1.657544        -1.988241        -0.791346
 H         2.053730        -1.531540         0.934205
 H        -0.131357        -0.852948         2.218293
 H        -1.070858         0.573294         1.742165
