19
Iteration:  2037
 O        -3.052048        -1.064856         1.485538
 C        -1.811670        -1.326047         0.890218
 C        -1.812319        -2.613786         0.104925
 C        -1.729251        -1.161132        -0.605677
 O        -0.545960        -0.579379        -1.016327
 C         0.403491        -0.510016         0.101889
 C         1.449664         0.585996        -0.011562
 C         1.863586        -0.926272        -0.214250
 C        -0.423840        -0.815742         1.426589
 H        -3.252087        -1.638260         2.237463
 H        -1.053835        -3.405713         0.213581
 H        -2.905795        -2.891569         0.033446
 H        -2.425536        -0.799159        -1.253497
 H         1.388070         1.105848        -0.958631
 H         1.772661         1.051570         0.894056
 H         2.151390        -1.242218        -1.164272
 H         2.263854        -1.679822         0.474703
 H         0.121345        -1.630770         2.026115
 H        -0.583410         0.056526         1.982214
