19
Iteration:  4312
 O        -2.995759        -1.147025         1.559061
 C        -1.726610        -1.305418         0.904967
 C        -1.581766        -2.641044        -0.069483
 C        -1.725064        -1.269835        -0.658124
 O        -0.612208        -0.451887        -1.079559
 C         0.312024        -0.359109         0.111394
 C         1.554976         0.360286         0.081501
 C         1.614723        -1.176653        -0.084325
 C        -0.529721        -0.445007         1.359764
 H        -2.953192        -1.477593         2.449510
 H        -0.666614        -3.236564        -0.142265
 H        -2.469743        -3.253821        -0.014624
 H        -2.559434        -1.160422        -1.235729
 H         1.865606         0.869070        -0.873509
 H         1.938849         0.908899         1.053651
 H         1.746816        -1.660307        -1.009075
 H         1.885156        -1.773842         0.718352
 H         0.060657        -0.717150         2.280052
 H        -0.961952         0.540272         1.648830
