19
Iteration:  4555
 O        -2.976002        -0.974392         1.675070
 C        -1.766847        -1.179426         0.779757
 C        -1.880674        -2.486389         0.056012
 C        -1.744717        -1.121504        -0.726040
 O        -0.418243        -0.830617        -1.130417
 C         0.375485        -0.636517         0.130843
 C         1.243790         0.598420        -0.001958
 C         1.838676        -0.843878        -0.038831
 C        -0.376295        -0.919726         1.347724
 H        -2.788894        -1.684738         2.358659
 H        -0.981985        -3.125215         0.031148
 H        -2.908158        -2.891250        -0.003455
 H        -2.490961        -0.851119        -1.381494
 H         1.209774         1.146289        -0.901297
 H         1.380658         1.129544         0.903280
 H         2.229176        -1.393276        -0.913526
 H         2.324556        -1.202661         0.950067
 H        -0.130478        -1.772228         1.983640
 H        -0.619513         0.002291         1.983992
