19
Iteration:  4941charge 0 multiplicity 1
 O        -2.827516        -0.702187         1.717902
 C        -1.798579        -1.304140         0.857954
 C        -1.977311        -2.630854        -0.069810
 C        -1.731220        -1.207270        -0.640311
 O        -0.445000        -0.957772        -1.072770
 C         0.387635        -0.633658         0.051843
 C         1.144018         0.610148         0.022469
 C         1.944913        -0.659141        -0.012578
 C        -0.402740        -1.077073         1.333193
 H        -3.589669        -0.617000         1.120890
 H        -1.110291        -3.254941        -0.233140
 H        -2.990497        -2.950858        -0.115647
 H        -2.523781        -0.771598        -1.169885
 H         1.203468         1.292298        -0.907269
 H         1.097558         1.221823         0.894827
 H         2.573856        -0.845762        -0.910928
 H         2.453397        -1.065709         0.771099
 H         0.077920        -1.923161         1.843980
 H        -0.437907        -0.300522         2.178727
