19
Iteration:   738charge 0 multiplicity 1
 O        -2.934384        -1.027014         1.753397
 C        -1.867354        -1.287902         0.840142
 C        -1.758088        -2.525451        -0.123739
 C        -1.713429        -1.147127        -0.624464
 O        -0.479407        -0.902528        -1.031007
 C         0.395506        -0.547737         0.162769
 C         1.239635         0.605218        -0.022657
 C         1.879888        -0.864840        -0.206671
 C        -0.439431        -0.727072         1.397636
 H        -3.535700        -1.778774         1.716807
 H        -0.873550        -3.084099        -0.110233
 H        -2.718596        -3.102746        -0.197744
 H        -2.317693        -0.503970        -1.322441
 H         0.986510         1.124634        -0.983955
 H         1.558236         1.226929         1.051663
 H         1.925287        -1.118124        -1.259996
 H         2.436140        -1.171414         0.713756
 H        -0.000054        -1.607520         2.101602
 H        -0.489863         0.228092         1.963731
