19
Iteration:   459
 O        -2.973294        -1.020181         1.620449
 C        -1.832909        -1.343018         0.795047
 C        -1.596155        -2.692942         0.127674
 C        -1.667338        -1.261805        -0.645793
 O        -0.569093        -0.494565        -1.025125
 C         0.287666        -0.411715         0.132424
 C         1.455467         0.512762        -0.233088
 C         1.686929        -0.989214        -0.048626
 C        -0.527930        -0.713580         1.394558
 H        -2.962611        -1.561228         2.430370
 H        -0.660169        -3.313659         0.392043
 H        -2.369416        -3.456321        -0.090404
 H        -2.554201        -1.002975        -1.212705
 H         1.188967         0.876222        -1.279957
 H         1.988734         1.161361         0.439533
 H         1.845333        -1.628757        -0.994169
 H         2.345924        -1.356373         0.812965
 H         0.154628        -1.383855         1.854921
 H        -0.787492         0.115640         2.155710
