19
Iteration:  2329
 O        -2.943529        -0.874129         1.696495
 C        -1.847190        -1.371126         0.881791
 C        -1.836353        -2.593801        -0.143196
 C        -1.795919        -1.199093        -0.689237
 O        -0.471566        -0.737029        -0.996216
 C         0.383996        -0.575357         0.122086
 C         1.322977         0.590348        -0.013068
 C         1.882995        -0.911009        -0.109782
 C        -0.431725        -0.850206         1.378871
 H        -3.064094        -1.553451         2.370740
 H        -0.865439        -3.022689        -0.269466
 H        -2.722318        -3.071628        -0.539987
 H        -2.582030        -0.835821        -1.456222
 H         1.210129         1.274084        -0.763306
 H         1.685015         1.055149         0.981975
 H         2.133576        -1.238378        -1.066956
 H         2.390475        -1.267889         0.751911
 H         0.079728        -1.389146         2.133039
 H        -0.583161         0.158075         1.829406
