19
Iteration:  4475charge 0 multiplicity 1
 O        -3.029186        -0.944642         1.513696
 C        -1.825546        -1.314342         0.879634
 C        -1.730203        -2.617107         0.065990
 C        -1.732559        -1.287208        -0.611197
 O        -0.509264        -0.535325        -1.026398
 C         0.357368        -0.518858         0.119139
 C         1.477111         0.550352        -0.009232
 C         1.718962        -1.007257        -0.110242
 C        -0.439979        -0.792495         1.341651
 H        -3.296890        -1.621627         2.196611
 H        -0.782331        -3.112829         0.192178
 H        -2.516502        -3.343905        -0.148442
 H        -2.554359        -0.966415        -1.369129
 H         1.400336         1.150983        -0.956798
 H         1.921158         1.215442         0.865849
 H         1.958633        -1.415072        -1.067555
 H         2.224551        -1.567734         0.621736
 H         0.070911        -1.513916         2.108195
 H        -0.529745         0.114579         1.950752
