19
Iteration:  2318charge 0 multiplicity 1
 O        -2.955858        -0.860055         1.661147
 C        -1.819551        -1.387943         0.890785
 C        -1.717319        -2.525581        -0.196641
 C        -1.791444        -1.140759        -0.598045
 O        -0.546496        -0.704107        -0.990643
 C         0.387851        -0.622040         0.080328
 C         1.310915         0.554210        -0.024007
 C         1.813892        -0.920530        -0.075583
 C        -0.402960        -0.892562         1.365057
 H        -3.328917        -1.560230         2.264148
 H        -0.792224        -3.063571        -0.230773
 H        -2.504306        -3.229403        -0.082052
 H        -2.582228        -0.883263        -1.378733
 H         1.353644         0.973530        -0.945833
 H         1.624084         1.146458         0.922247
 H         2.330775        -1.192660        -0.923886
 H         2.392729        -1.193979         0.772535
 H         0.084188        -1.430229         2.129649
 H        -0.733420         0.093104         1.744522
