19
Iteration:  1233
 O        -2.754011        -0.624575         1.548500
 C        -1.752710        -1.413285         0.799507
 C        -2.207873        -2.540720        -0.014945
 C        -1.683205        -1.237275        -0.615184
 O        -0.301107        -1.134389        -1.022890
 C         0.367184        -0.599619         0.126347
 C         0.979127         0.799212         0.115311
 C         1.823029        -0.466261        -0.118489
 C        -0.215615        -1.285604         1.316328
 H        -2.946187        -1.142916         2.350737
 H        -1.661826        -3.499567        -0.023616
 H        -3.373873        -2.547975        -0.222369
 H        -2.529570        -0.575402        -1.015762
 H         0.743737         1.420910        -0.706002
 H         1.101216         1.324896         1.012847
 H         2.218778        -0.712374        -1.112545
 H         2.611828        -0.808677         0.607271
 H         0.265491        -2.249686         1.397785
 H        -0.066586        -0.741018         2.293703
