19
Iteration:  4476charge 0 multiplicity 1
 O        -3.023137        -0.947940         1.509496
 C        -1.816657        -1.311067         0.876665
 C        -1.742451        -2.625406         0.071715
 C        -1.725194        -1.280618        -0.608573
 O        -0.508611        -0.535138        -1.032421
 C         0.348223        -0.507879         0.124712
 C         1.474416         0.557094        -0.011274
 C         1.726794        -1.008500        -0.106621
 C        -0.442332        -0.805700         1.347744
 H        -3.282556        -1.633575         2.186279
 H        -0.806591        -3.148657         0.185997
 H        -2.556778        -3.319831        -0.133330
 H        -2.555400        -0.945258        -1.380001
 H         1.409691         1.158890        -0.989098
 H         1.886895         1.208741         0.853438
 H         1.953555        -1.441568        -1.075251
 H         2.231223        -1.594762         0.612256
 H         0.062731        -1.475658         2.127807
 H        -0.525341         0.122879         1.945612
