19
Iteration:   829charge 0 multiplicity 1
 O        -2.885867        -0.828712         1.551593
 C        -1.766264        -1.301288         0.889075
 C        -1.847918        -2.603136         0.019736
 C        -1.712143        -1.227810        -0.669841
 O        -0.428367        -0.785279        -1.079084
 C         0.325080        -0.590862         0.126572
 C         1.155620         0.691264         0.097544
 C         1.737509        -0.783346        -0.158911
 C        -0.335317        -1.067407         1.370661
 H        -2.898848        -0.966961         2.511012
 H        -0.892061        -3.209387        -0.051864
 H        -2.794566        -3.171921         0.028689
 H        -2.458108        -0.842841        -1.299664
 H         1.005170         1.266704        -0.855518
 H         1.495437         1.179914         0.994931
 H         1.902646        -0.993127        -1.264347
 H         2.362465        -1.120196         0.598114
 H         0.145077        -1.998803         1.776003
 H        -0.330016        -0.319699         2.201570
