19
Iteration:   859charge 0 multiplicity 1
 O        -2.906270        -0.815345         1.514065
 C        -1.789758        -1.365463         0.895041
 C        -2.026328        -2.655370         0.048788
 C        -1.727341        -1.269664        -0.557913
 O        -0.443688        -0.859825        -1.057765
 C         0.382165        -0.608676         0.092386
 C         1.321490         0.674206         0.169192
 C         1.896649        -0.606342        -0.290813
 C        -0.408323        -1.018501         1.334743
 H        -3.416320        -1.324280         2.198231
 H        -1.093980        -3.269068        -0.028467
 H        -2.905119        -3.239149        -0.036174
 H        -2.555156        -0.742351        -0.956633
 H         0.989676         1.467623        -0.632737
 H         1.769376         1.045871         1.230138
 H         1.962221        -0.715274        -1.413445
 H         2.628606        -0.970821         0.415453
 H         0.192351        -1.752654         2.005964
 H        -0.563538        -0.095635         1.916236
