19
Iteration:  2284
 O        -2.975032        -1.066028         1.527498
 C        -1.733752        -1.276545         0.854265
 C        -1.795029        -2.576812         0.058445
 C        -1.732470        -1.182821        -0.650754
 O        -0.561914        -0.553750        -1.051030
 C         0.320985        -0.458090         0.103638
 C         1.461013         0.543251        -0.013428
 C         1.672641        -1.017371        -0.092149
 C        -0.352041        -0.837464         1.381699
 H        -3.198881        -1.788907         2.141008
 H        -1.012913        -3.357735         0.167946
 H        -2.822651        -2.893115         0.266378
 H        -2.496667        -1.011976        -1.296630
 H         1.665181         1.120773        -0.934897
 H         1.803732         1.192510         0.845048
 H         1.991503        -1.467069        -1.040458
 H         2.135863        -1.274244         0.864929
 H         0.169178        -1.563468         1.898422
 H        -0.555425         0.044432         2.059001
