19
Iteration:  1661
 O        -2.939364        -0.990589         1.624327
 C        -1.733543        -1.421021         0.916371
 C        -1.722692        -2.529509        -0.075156
 C        -1.758599        -1.132597        -0.568812
 O        -0.453793        -0.733552        -1.100384
 C         0.253898        -0.476137         0.107906
 C         1.413498         0.509898        -0.094575
 C         1.710316        -0.911342        -0.076587
 C        -0.497838        -0.785725         1.398089
 H        -3.091573        -1.490675         2.459965
 H        -0.695931        -2.976001        -0.224014
 H        -2.595590        -3.208419        -0.270594
 H        -2.620065        -0.573633        -1.175397
 H         1.476597         1.267557        -0.938819
 H         1.605673         1.020812         0.830461
 H         1.894266        -1.702483        -0.900332
 H         2.269016        -1.205182         0.813647
 H         0.085178        -1.331700         2.130003
 H        -0.830189         0.149472         1.903125
