19
Iteration:  3499
 O        -2.784247        -0.703546         1.588857
 C        -1.712200        -1.469367         0.824049
 C        -2.212295        -2.407915        -0.102673
 C        -1.674320        -1.086408        -0.625103
 O        -0.242997        -1.235250        -0.995571
 C         0.398937        -0.708883         0.105315
 C         0.922458         0.723794         0.096817
 C         1.887858        -0.416718        -0.069055
 C        -0.340847        -1.214154         1.321133
 H        -2.937200        -1.150140         2.413027
 H        -1.692373        -3.364609        -0.475909
 H        -3.333377        -2.486251         0.101220
 H        -2.248896        -0.250519        -0.950084
 H         0.813305         1.298878        -0.900415
 H         1.054326         1.362347         1.009904
 H         2.154223        -0.763384        -1.192297
 H         2.825713        -0.586689         0.445811
 H         0.111700        -2.249750         1.594504
 H        -0.346100        -0.440219         2.157825
