19
Iteration:  4314
 O        -3.002087        -1.155868         1.571837
 C        -1.740981        -1.318415         0.881789
 C        -1.587308        -2.644247        -0.078674
 C        -1.718494        -1.261117        -0.657714
 O        -0.604157        -0.455668        -1.080465
 C         0.280111        -0.342543         0.116814
 C         1.579447         0.344302         0.063403
 C         1.608736        -1.159690        -0.077723
 C        -0.505538        -0.432898         1.366310
 H        -2.918387        -1.537684         2.464714
 H        -0.674552        -3.233485        -0.102030
 H        -2.453533        -3.257979         0.003087
 H        -2.649246        -1.150869        -1.239084
 H         1.938069         0.785035        -0.823552
 H         1.894709         0.879058         1.082872
 H         1.743067        -1.664757        -1.002898
 H         1.917234        -1.774333         0.773936
 H         0.060329        -0.628135         2.269607
 H        -0.968047         0.557866         1.635340
