19
Iteration:  1261charge 0 multiplicity 1
 O        -2.696486        -0.655962         1.650771
 C        -1.812805        -1.386350         0.804857
 C        -2.226482        -2.488362        -0.019837
 C        -1.656055        -1.215425        -0.603038
 O        -0.303853        -1.119379        -1.017109
 C         0.485174        -0.713937         0.123004
 C         0.913957         0.761359         0.011373
 C         1.968073        -0.367510        -0.161791
 C        -0.373559        -1.331164         1.370224
 H        -3.421258        -1.251181         1.809913
 H        -1.595057        -3.342541         0.009474
 H        -3.209781        -2.497219        -0.334902
 H        -2.358803        -0.563331        -1.179873
 H         0.541224         1.321138        -0.914984
 H         0.815444         1.407705         0.939645
 H         2.556271        -0.500277        -1.106193
 H         2.600058        -0.672667         0.642331
 H         0.016007        -2.378848         1.698461
 H        -0.311983        -0.820411         2.304930
