19
Iteration:  1862charge 0 multiplicity 1
 O        -2.969866        -1.049142         1.639323
 C        -1.840840        -1.369933         0.825075
 C        -1.682130        -2.588170         0.027668
 C        -1.835942        -1.240751        -0.623194
 O        -0.686753        -0.492446        -1.025274
 C         0.362442        -0.466359         0.023459
 C         1.636825         0.451191         0.028052
 C         1.894376        -1.005725        -0.057937
 C        -0.571765        -0.699701         1.294753
 H        -3.086545        -1.686186         2.343061
 H        -0.630995        -3.105378        -0.045852
 H        -2.534107        -3.335271        -0.067445
 H        -2.615038        -1.049187        -1.386348
 H         1.926243         1.140837        -0.842388
 H         1.626032         1.068936         0.940530
 H         2.105743        -1.363857        -1.155768
 H         2.178257        -1.642097         0.783812
 H         0.039646        -1.204937         2.124000
 H        -0.879943         0.290827         1.568962
