19
Iteration:  2021
 O        -2.961694        -1.008983         1.557951
 C        -1.769075        -1.297556         0.872052
 C        -1.896334        -2.587870         0.000411
 C        -1.726395        -1.272077        -0.650283
 O        -0.558316        -0.559258        -0.992853
 C         0.376132        -0.561057         0.075829
 C         1.370449         0.472188        -0.009173
 C         1.851301        -0.887462        -0.096736
 C        -0.373756        -0.797608         1.355075
 H        -2.980226        -1.775255         2.125011
 H        -1.121944        -3.388004        -0.039080
 H        -2.903574        -2.936672        -0.086825
 H        -2.732544        -0.955063        -1.177243
 H         1.414061         1.229818        -0.823150
 H         1.570170         1.108674         0.954641
 H         2.124755        -1.328865        -1.141214
 H         2.551084        -0.998803         0.783652
 H         0.071294        -1.434234         2.077146
 H        -0.475455         0.158067         2.017522
