19
Iteration:  2553charge 0 multiplicity 1
 O        -2.995780        -1.159202         1.486176
 C        -1.725469        -1.338844         0.911447
 C        -1.624473        -2.492285         0.027461
 C        -1.737782        -1.143579        -0.539009
 O        -0.580132        -0.445096        -0.992838
 C         0.297288        -0.559881         0.088395
 C         1.428379         0.348855        -0.013146
 C         1.704853        -1.071985        -0.149570
 C        -0.464661        -0.585614         1.353363
 H        -3.154676        -1.782333         2.211051
 H        -0.640473        -3.024496         0.045865
 H        -2.383743        -3.281718        -0.136111
 H        -2.559977        -0.858174        -1.020176
 H         1.480401         1.010788        -0.960313
 H         1.636867         0.829645         0.900971
 H         1.878133        -1.554264        -1.214905
 H         2.198971        -1.497487         0.780656
 H         0.202916        -1.047748         2.139710
 H        -0.799350         0.407867         1.512643
