19
Iteration:  4444
 O        -3.015761        -0.998213         1.503881
 C        -1.807887        -1.264320         0.902829
 C        -1.467910        -2.560438         0.075774
 C        -1.762164        -1.282150        -0.588981
 O        -0.580331        -0.427262        -1.110326
 C         0.305080        -0.523383         0.064434
 C         1.425201         0.366649         0.048016
 C         1.809457        -1.146687        -0.172980
 C        -0.596688        -0.675238         1.445328
 H        -3.005859        -1.377050         2.374258
 H        -0.425726        -2.780434         0.188364
 H        -2.093881        -3.428364        -0.087594
 H        -2.747471        -1.156210        -1.257332
 H         1.543947         1.215839        -0.697896
 H         1.665751         0.870450         1.024057
 H         1.782378        -1.291657        -1.248832
 H         2.340298        -1.797820         0.486332
 H        -0.199665        -1.330025         2.207440
 H        -1.001577         0.325333         1.716736
