19
Iteration:  4205
 O        -2.912977        -0.976578         1.642349
 C        -1.843489        -1.363488         0.845377
 C        -1.845915        -2.567651        -0.074575
 C        -1.794065        -1.117109        -0.622563
 O        -0.456138        -0.774485        -1.069242
 C         0.401732        -0.564673         0.077203
 C         1.337528         0.580299         0.012539
 C         1.856164        -0.946717        -0.013773
 C        -0.494035        -0.736511         1.328533
 H        -2.966171        -1.458001         2.461832
 H        -0.869460        -2.994367        -0.122693
 H        -2.640900        -3.254940        -0.301752
 H        -2.574547        -0.855921        -1.212099
 H         1.561202         1.122827        -0.934482
 H         1.424731         1.009967         0.987164
 H         2.194537        -1.213511        -1.002095
 H         2.112031        -1.330946         0.898305
 H         0.126928        -1.283740         1.988652
 H        -0.691122         0.271302         1.734178
