19
Iteration:  1051
 O        -2.833134        -0.809953         1.542282
 C        -1.775621        -1.398132         0.908287
 C        -2.037578        -2.610727        -0.011766
 C        -1.864217        -1.284623        -0.614576
 O        -0.494807        -0.903847        -1.056929
 C         0.353929        -0.462570         0.068167
 C         1.274901         0.751762         0.028347
 C         1.924930        -0.657104        -0.017383
 C        -0.260055        -1.095513         1.270151
 H        -3.031204        -1.101774         2.440357
 H        -1.409620        -3.488825        -0.138638
 H        -3.107683        -2.885050        -0.046731
 H        -2.696355        -0.918954        -1.147656
 H         1.242494         1.479013        -0.783755
 H         1.289988         1.366251         0.912529
 H         2.418388        -1.053645        -1.019638
 H         2.441089        -1.038504         0.885109
 H         0.248924        -1.988934         1.674319
 H        -0.352903        -0.459138         2.178812
