19
Iteration:  1137
 O        -2.879519        -0.776244         1.595459
 C        -1.725977        -1.384609         0.950541
 C        -2.058120        -2.564394        -0.093687
 C        -1.763335        -1.191776        -0.590587
 O        -0.377002        -1.060180        -0.946306
 C         0.374353        -0.561878         0.098046
 C         1.175465         0.759244        -0.049369
 C         1.817545        -0.551908        -0.140250
 C        -0.277394        -1.109044         1.348429
 H        -3.604011        -1.373322         1.762772
 H        -1.431833        -3.463445        -0.228762
 H        -3.204629        -2.729247        -0.151076
 H        -2.310473        -0.526980        -1.197922
 H         1.251884         1.474150        -0.849384
 H         1.350653         1.095126         0.922389
 H         2.295490        -0.866461        -1.155191
 H         2.452737        -0.911297         0.719655
 H         0.173444        -2.161972         1.451571
 H        -0.184999        -0.497379         2.368778
