19
Iteration:  2098
 O        -2.897814        -1.090188         1.563370
 C        -1.778159        -1.401646         0.836150
 C        -1.587021        -2.635562         0.093713
 C        -1.677603        -1.148313        -0.650443
 O        -0.629652        -0.342146        -1.021490
 C         0.284604        -0.483391         0.040726
 C         1.469379         0.391638         0.001732
 C         1.655446        -1.089643        -0.057788
 C        -0.523899        -0.704106         1.277478
 H        -2.911503        -1.571299         2.418345
 H        -0.659299        -3.230713         0.304532
 H        -2.456182        -3.318912        -0.122896
 H        -2.653824        -0.778978        -1.101483
 H         1.653651         1.030480        -0.884785
 H         1.801440         0.922077         1.032528
 H         1.709034        -1.463075        -1.080994
 H         1.951543        -1.666698         0.933652
 H         0.048761        -1.097277         2.104281
 H        -0.971878         0.360014         1.522631
