19
Iteration:  2668
 O        -3.059293        -1.325068         1.628059
 C        -1.812931        -1.313770         0.899765
 C        -1.570512        -2.475309         0.014212
 C        -1.725389        -1.125094        -0.686918
 O        -0.513761        -0.435099        -0.994278
 C         0.292855        -0.423387         0.119519
 C         1.603687         0.349526        -0.115063
 C         1.583927        -1.201029        -0.071769
 C        -0.518669        -0.465434         1.338604
 H        -2.966077        -1.963852         2.350561
 H        -0.631846        -3.030640         0.161334
 H        -2.445432        -3.087468        -0.061570
 H        -2.644343        -0.738376        -1.315687
 H         1.885499         0.799997        -1.137003
 H         2.051265         0.856986         0.672619
 H         1.777706        -1.630700        -1.049319
 H         2.063680        -1.452973         0.815077
 H         0.070716        -0.870340         2.175787
 H        -1.047567         0.543433         1.570239
