19
Iteration:   306
 O        -2.874488        -0.961190         1.711252
 C        -1.816787        -1.237449         0.862914
 C        -1.856114        -2.575367         0.117166
 C        -1.719641        -1.182088        -0.676341
 O        -0.378623        -0.916474        -1.095313
 C         0.368410        -0.540527         0.119487
 C         1.196509         0.648659         0.022771
 C         1.782517        -0.796481        -0.235388
 C        -0.409025        -0.838779         1.386101
 H        -3.580043        -1.579137         1.451978
 H        -0.955565        -3.311929         0.024080
 H        -2.752138        -3.210233        -0.129967
 H        -2.480676        -1.039471        -1.455508
 H         1.079926         1.404555        -0.760811
 H         1.543623         1.115338         1.006250
 H         1.868577        -1.088134        -1.327992
 H         2.505690        -1.251587         0.497793
 H        -0.044720        -1.512201         2.107879
 H        -0.490224         0.185499         1.879469
