19
Iteration:  3448
 O        -2.678967        -0.673539         1.580418
 C        -1.812031        -1.351824         0.805860
 C        -2.186948        -2.502474         0.039290
 C        -1.600423        -1.169265        -0.612726
 O        -0.366195        -0.992636        -1.118513
 C         0.410692        -0.701199         0.081372
 C         0.968765         0.737026         0.054581
 C         1.902738        -0.474080         0.032134
 C        -0.355875        -1.376577         1.287685
 H        -3.169433        -1.186916         2.267361
 H        -1.410005        -3.195051         0.293572
 H        -3.127738        -2.976970        -0.273404
 H        -2.331871        -0.609838        -1.097870
 H         0.678007         1.336654        -0.818237
 H         0.763897         1.210648         0.984229
 H         2.329564        -0.730192        -0.967900
 H         2.664411        -0.820358         0.727932
 H         0.026593        -2.330223         1.577810
 H        -0.420791        -0.572322         1.954554
