19
Iteration:  2616charge 0 multiplicity 1
 O        -2.944304        -1.220130         1.585804
 C        -1.734793        -1.351350         0.890492
 C        -1.440334        -2.551482         0.028090
 C        -1.661281        -1.209015        -0.650069
 O        -0.672361        -0.208959        -1.022361
 C         0.300384        -0.406454         0.090128
 C         1.557094         0.276728        -0.070523
 C         1.515446        -1.283847        -0.011480
 C        -0.560930        -0.465519         1.312516
 H        -2.944953        -1.872338         2.328637
 H        -0.381292        -2.956962        -0.097313
 H        -2.340528        -3.200509        -0.088107
 H        -2.487803        -1.276602        -1.364804
 H         1.774327         0.744256        -1.137530
 H         1.776328         0.936915         0.698964
 H         1.635029        -1.835777        -1.048333
 H         1.592990        -1.811280         0.964943
 H        -0.189772        -0.949590         2.256632
 H        -1.089619         0.401715         1.703417
