19
Iteration:   718
 O        -2.964816        -0.966409         1.680768
 C        -1.791805        -1.362478         0.890219
 C        -1.764161        -2.547627         0.051496
 C        -1.805721        -1.198376        -0.615788
 O        -0.428951        -0.669663        -1.061703
 C         0.377684        -0.599566         0.108274
 C         1.342384         0.570450        -0.095055
 C         1.842363        -0.777581        -0.168474
 C        -0.485319        -0.911794         1.393610
 H        -3.501940        -1.804475         1.642537
 H        -0.919902        -3.210523        -0.036998
 H        -2.647500        -3.191479        -0.236257
 H        -2.508287        -0.722937        -1.266285
 H         1.201887         1.124822        -1.021521
 H         1.671850         1.121803         0.919883
 H         1.956941        -1.208011        -1.142344
 H         2.499388        -1.141539         0.717874
 H         0.029085        -1.486144         2.253780
 H        -0.874867         0.029992         1.799298
