19
Iteration:   988charge 0 multiplicity 1
 O        -2.881912        -0.801375         1.629581
 C        -1.797114        -1.273735         0.777143
 C        -1.908008        -2.607202        -0.039782
 C        -1.837313        -1.207217        -0.643454
 O        -0.383106        -0.986403        -0.959399
 C         0.409813        -0.542563         0.105455
 C         1.226441         0.670168         0.115845
 C         1.804437        -0.647016        -0.219194
 C        -0.346292        -1.047728         1.387766
 H        -3.251243        -1.581768         2.024245
 H        -1.019191        -3.197903        -0.209832
 H        -2.835471        -3.164347        -0.074125
 H        -2.514943        -0.651617        -1.217329
 H         1.084257         1.335787        -0.881677
 H         1.284047         1.113522         1.201410
 H         1.961038        -0.663378        -1.388412
 H         2.551023        -1.174185         0.383327
 H        -0.006672        -1.927674         1.920562
 H        -0.442022        -0.214578         2.019690
