19
Iteration:    82
 O        -3.087086        -1.433515         1.509751
 C        -1.750480        -1.284505         0.967429
 C        -1.428354        -2.497628         0.030158
 C        -1.763743        -1.187735        -0.503503
 O        -0.648606        -0.549091        -0.959723
 C         0.298531        -0.349665         0.091151
 C         1.652830         0.386496        -0.248871
 C         1.618825        -1.155840        -0.107837
 C        -0.561343        -0.260721         1.372685
 H        -2.952346        -1.831655         2.399806
 H        -0.385618        -2.906816        -0.027569
 H        -2.263783        -3.285189         0.072230
 H        -2.675126        -1.031522        -1.110070
 H         1.856760         0.848918        -1.204972
 H         2.116405         0.849732         0.632925
 H         1.556852        -1.907279        -1.008941
 H         1.958793        -1.688243         0.752734
 H        -0.025676        -0.425828         2.349868
 H        -1.032746         0.701610         1.429732
