19
Iteration:  1545charge 0 multiplicity 1
 O        -2.932687        -0.854512         1.548551
 C        -1.818865        -1.365599         0.903612
 C        -1.901905        -2.574453         0.013805
 C        -1.739481        -1.175506        -0.583271
 O        -0.460861        -0.816782        -1.005749
 C         0.420152        -0.594451         0.027213
 C         1.230295         0.628354         0.031309
 C         1.896556        -0.741033        -0.152550
 C        -0.398793        -1.018032         1.336082
 H        -2.980580        -1.218438         2.447701
 H        -1.166436        -3.401155         0.123746
 H        -2.883904        -2.895311        -0.241606
 H        -2.645445        -0.824836        -1.226810
 H         1.369719         1.360048        -0.791593
 H         1.328033         1.212246         0.958830
 H         2.271026        -0.835578        -1.209821
 H         2.459726        -1.200621         0.617639
 H         0.011621        -1.825777         2.063139
 H        -0.533260        -0.136148         1.957271
