19
Iteration:  4218charge 0 multiplicity 1
 O        -2.922491        -0.965697         1.548816
 C        -1.731784        -1.329550         0.871490
 C        -1.796381        -2.561746        -0.067526
 C        -1.729417        -1.219776        -0.616998
 O        -0.531479        -0.701899        -1.014072
 C         0.315141        -0.563511         0.081995
 C         1.381657         0.507288         0.008587
 C         1.799019        -0.889515        -0.043353
 C        -0.470021        -0.753296         1.357800
 H        -3.060218        -1.699945         2.206270
 H        -1.114742        -3.394036        -0.146757
 H        -2.837807        -2.778206         0.001657
 H        -2.502012        -0.745219        -1.205640
 H         1.429479         1.079177        -0.828172
 H         1.652796         1.124992         0.895988
 H         2.112179        -1.381426        -0.964526
 H         2.445348        -1.385471         0.732983
 H        -0.077545        -1.253112         2.219651
 H        -0.814230         0.244181         1.726732
