19
Iteration:  3034
 O        -2.897770        -1.252737         1.606322
 C        -1.831405        -1.346172         0.841182
 C        -1.431523        -2.535523        -0.016676
 C        -1.736111        -1.137042        -0.700501
 O        -0.552151        -0.389900        -1.010923
 C         0.278427        -0.369352         0.213887
 C         1.625768         0.265894        -0.127739
 C         1.479724        -1.211303        -0.032246
 C        -0.625208        -0.389161         1.394508
 H        -2.823716        -2.104601         2.153110
 H        -0.547115        -3.054091         0.137403
 H        -2.264674        -3.198261        -0.049929
 H        -2.558932        -0.967351        -1.416905
 H         1.709324         0.738150        -1.120637
 H         2.087171         0.876458         0.620231
 H         1.262025        -1.582932        -1.039445
 H         1.753787        -2.029833         0.562949
 H        -0.243960        -0.843194         2.396771
 H        -1.103132         0.538372         1.665165
