19
Iteration:   207charge 0 multiplicity 1
 O        -3.029626        -0.940647         1.611246
 C        -1.820714        -1.356239         0.927505
 C        -1.720428        -2.581300         0.034458
 C        -1.688839        -1.248379        -0.580919
 O        -0.423076        -0.733787        -0.996059
 C         0.323670        -0.512483         0.140721
 C         1.327515         0.595935        -0.136082
 C         1.785280        -0.809895        -0.216374
 C        -0.495884        -0.882086         1.382369
 H        -2.976609        -1.413761         2.487472
 H        -0.863164        -3.229818         0.003264
 H        -2.670322        -3.110596        -0.215107
 H        -2.450759        -0.947202        -1.328299
 H         1.254112         1.200725        -1.073498
 H         1.895659         1.197749         0.609895
 H         1.907287        -1.329625        -1.197453
 H         2.494720        -1.068798         0.554315
 H         0.133461        -1.535397         1.941003
 H        -0.824711        -0.030403         2.060133
