19
Iteration:  2576
 O        -2.991035        -1.208323         1.560515
 C        -1.765414        -1.255939         0.845318
 C        -1.466691        -2.528213         0.022967
 C        -1.814464        -1.196681        -0.624294
 O        -0.589314        -0.441324        -1.042498
 C         0.337911        -0.428268         0.120670
 C         1.569708         0.418297         0.047534
 C         1.602511        -1.230580        -0.201909
 C        -0.592651        -0.522388         1.436191
 H        -2.914161        -1.592453         2.446666
 H        -0.550956        -3.104226        -0.244774
 H        -2.268171        -3.259271         0.087312
 H        -2.564507        -1.072782        -1.247617
 H         1.759247         1.037358        -0.896222
 H         1.854831         0.894313         0.955300
 H         1.563110        -1.591754        -1.299845
 H         2.018174        -1.918599         0.559047
 H        -0.075205        -1.164269         2.184791
 H        -0.806766         0.507251         1.709850
