19
Iteration:  4154
 O        -2.939881        -0.918329         1.565810
 C        -1.769485        -1.334483         0.801810
 C        -1.899149        -2.634585         0.027091
 C        -1.706126        -1.207147        -0.643998
 O        -0.480641        -0.661120        -1.055114
 C         0.377358        -0.512955         0.097709
 C         1.336049         0.591190        -0.008760
 C         1.804369        -0.942416         0.004954
 C        -0.428441        -0.880396         1.325814
 H        -2.972818        -1.545809         2.298956
 H        -1.081615        -3.348324        -0.054466
 H        -2.920107        -3.002444        -0.001281
 H        -2.560982        -0.682352        -1.051756
 H         1.197499         0.991300        -0.940790
 H         1.508338         1.241765         0.855646
 H         2.157000        -1.235924        -1.027578
 H         2.365643        -1.233792         0.984988
 H         0.207083        -1.544815         1.957206
 H        -0.558526         0.091053         1.848565
