19
Iteration:  1222charge 0 multiplicity 1
 O        -2.699572        -0.671942         1.493808
 C        -1.728189        -1.348343         0.916721
 C        -2.145245        -2.521416        -0.002864
 C        -1.652365        -1.196250        -0.602184
 O        -0.355376        -1.132850        -1.015289
 C         0.392449        -0.595685         0.058514
 C         0.957337         0.807556         0.120644
 C         1.823584        -0.512601        -0.119735
 C        -0.328017        -1.313654         1.297969
 H        -2.777113        -0.960796         2.450896
 H        -1.446379        -3.379039        -0.094904
 H        -3.297342        -2.842870        -0.126737
 H        -2.341613        -0.502488        -1.264868
 H         0.873527         1.469672        -0.706589
 H         0.904920         1.201945         1.074271
 H         2.168939        -0.544609        -1.169992
 H         2.313739        -0.979623         0.742774
 H         0.136506        -2.282936         1.442311
 H        -0.289486        -0.736246         2.265127
