19
Iteration:  1572charge 0 multiplicity 1
 O        -2.809651        -0.767314         1.539003
 C        -1.722838        -1.347305         0.904724
 C        -1.800927        -2.614101        -0.016322
 C        -1.814167        -1.252954        -0.722107
 O        -0.503524        -0.725844        -1.078035
 C         0.344603        -0.539730         0.123398
 C         1.168919         0.612866         0.047574
 C         1.802212        -0.876292        -0.123604
 C        -0.373524        -0.974568         1.441043
 H        -3.191679        -1.449616         2.120174
 H        -0.975070        -3.354070         0.051987
 H        -2.828210        -3.219248        -0.134830
 H        -2.713628        -0.864772        -1.032884
 H         1.132722         1.219050        -0.846084
 H         1.469571         1.142639         1.012794
 H         2.098480        -1.123962        -1.112670
 H         2.404195        -0.975446         0.851775
 H        -0.016507        -1.874977         1.829668
 H        -0.428009        -0.289128         2.322066
