19
Iteration:   349charge 0 multiplicity 1
 O        -2.843767        -0.854609         1.602225
 C        -1.796952        -1.377469         0.827130
 C        -1.851598        -2.720080         0.021699
 C        -1.742528        -1.292521        -0.545747
 O        -0.601358        -0.682359        -1.002083
 C         0.311459        -0.496725         0.081683
 C         1.337246         0.624718        -0.177028
 C         1.820508        -0.723365        -0.005334
 C        -0.302658        -0.970242         1.383833
 H        -3.751445        -1.209207         1.495272
 H        -0.985061        -3.455534         0.009165
 H        -2.859893        -3.116545        -0.061514
 H        -2.638928        -1.018252        -1.117398
 H         1.184152         0.869663        -1.243277
 H         1.727447         1.548115         0.412416
 H         2.228841        -1.314628        -0.833487
 H         2.298175        -0.975441         1.032927
 H         0.292173        -1.707641         1.812790
 H        -0.489133        -0.148401         2.161831
