19
Iteration:  3173charge 0 multiplicity 1
 O        -2.982089        -1.011192         1.654860
 C        -1.833348        -1.231181         0.848962
 C        -1.880110        -2.549046        -0.064190
 C        -1.725411        -1.110308        -0.610866
 O        -0.453963        -0.851586        -1.087881
 C         0.361573        -0.537757         0.029024
 C         1.327160         0.592880         0.009779
 C         1.784612        -0.826133        -0.029126
 C        -0.280904        -0.846276         1.375557
 H        -3.047661        -1.912837         2.022654
 H        -0.984622        -3.032921         0.076305
 H        -2.841265        -3.016744        -0.073716
 H        -2.585312        -0.662079        -1.080588
 H         1.452246         1.077215        -1.004189
 H         1.277340         1.318300         0.703464
 H         2.128784        -1.341468        -0.955766
 H         1.915619        -1.341838         0.852009
 H         0.141988        -1.716130         1.858588
 H        -0.333801        -0.064438         2.119247
