19
Iteration:  3621
 O        -2.892750        -0.758847         1.539847
 C        -1.785512        -1.274347         0.846247
 C        -1.983623        -2.529965        -0.024634
 C        -1.794254        -1.177106        -0.670078
 O        -0.345643        -1.019187        -1.004365
 C         0.403270        -0.599632         0.138015
 C         1.105851         0.774634         0.085434
 C         1.857889        -0.671472        -0.108268
 C        -0.317880        -1.186264         1.348377
 H        -2.977238        -1.168233         2.392845
 H        -1.145327        -3.187750        -0.298386
 H        -2.984608        -2.939905         0.010329
 H        -2.280675        -0.510817        -1.334973
 H         0.681089         1.221533        -0.765476
 H         1.147142         1.216661         1.016887
 H         2.256440        -0.812326        -1.077509
 H         2.643888        -1.079414         0.606509
 H         0.081235        -2.223765         1.511572
 H        -0.244636        -0.691231         2.289444
