19
Iteration:   684charge 0 multiplicity 1
 O        -2.910606        -0.901637         1.536741
 C        -1.754131        -1.392709         0.917980
 C        -1.740999        -2.726773         0.078151
 C        -1.724895        -1.345978        -0.620163
 O        -0.608694        -0.543015        -1.045882
 C         0.250615        -0.371936         0.014591
 C         1.429511         0.550462        -0.006503
 C         1.695013        -0.903848        -0.073491
 C        -0.352444        -0.853125         1.313137
 H        -3.112916        -1.547187         2.272317
 H        -0.858340        -3.292643         0.024127
 H        -2.798428        -2.962107        -0.168492
 H        -2.587441        -1.003382        -1.192229
 H         1.748052         1.319564        -0.825534
 H         1.612601         1.028248         1.088675
 H         1.986266        -1.377394        -1.071855
 H         2.084108        -1.360398         0.837659
 H         0.301989        -1.666943         1.892589
 H        -0.516191        -0.079715         2.099728
