19
Iteration:   683
 O        -2.911988        -0.901131         1.539752
 C        -1.757212        -1.396994         0.915923
 C        -1.737099        -2.720870         0.078181
 C        -1.709804        -1.343544        -0.624722
 O        -0.617120        -0.543705        -1.051496
 C         0.249161        -0.375229         0.015822
 C         1.435653         0.550445        -0.000279
 C         1.690476        -0.900649        -0.070804
 C        -0.355916        -0.862842         1.313032
 H        -3.124394        -1.505914         2.319473
 H        -0.848928        -3.277433        -0.000392
 H        -2.764262        -2.987565        -0.138058
 H        -2.594895        -0.999989        -1.171580
 H         1.762384         1.330212        -0.815057
 H         1.610069         1.022094         1.056641
 H         1.977059        -1.396800        -1.058521
 H         2.068198        -1.362580         0.787445
 H         0.291858        -1.652592         1.911344
 H        -0.511739        -0.039628         2.065870
