19
Iteration:  1298charge 0 multiplicity 1
 O        -2.639383        -0.702731         1.685632
 C        -1.671812        -1.267503         0.880117
 C        -2.101090        -2.438752        -0.083253
 C        -1.739637        -1.148583        -0.768516
 O        -0.339135        -1.210621        -1.047653
 C         0.391618        -0.659565         0.023744
 C         0.779971         0.746735         0.075385
 C         1.884708        -0.529694        -0.055583
 C        -0.201377        -1.229764         1.444073
 H        -3.447030        -1.223122         1.690229
 H        -1.563586        -3.411653        -0.216656
 H        -3.223129        -2.691755        -0.248830
 H        -2.385130        -0.465880        -1.345923
 H         0.607430         1.212468        -0.825075
 H         0.565187         1.270238         0.955729
 H         2.356011        -0.710577        -0.958261
 H         2.244532        -0.825465         0.939649
 H        -0.113877        -2.254552         1.616531
 H        -0.279902        -0.559840         2.298071
