19
Iteration:  4209charge 0 multiplicity 1
 O        -2.902543        -0.970088         1.602537
 C        -1.828594        -1.357075         0.859709
 C        -1.826638        -2.542249        -0.091299
 C        -1.746190        -1.144880        -0.610695
 O        -0.484718        -0.756418        -1.022744
 C         0.381526        -0.565684         0.041639
 C         1.333606         0.541974        -0.002491
 C         1.847821        -0.910344        -0.021080
 C        -0.502008        -0.744381         1.343918
 H        -2.963747        -1.578714         2.389342
 H        -0.903449        -3.178850        -0.127629
 H        -2.779219        -3.109452        -0.155749
 H        -2.692720        -0.931333        -1.243616
 H         1.540757         1.115141        -0.831311
 H         1.570753         1.023141         0.996944
 H         2.084141        -1.241581        -1.053067
 H         2.196205        -1.413713         1.009936
 H         0.125531        -1.273657         2.117515
 H        -0.708690         0.292761         1.682232
