19
Iteration:  2927
 O        -3.058052        -1.042646         1.557938
 C        -1.840673        -1.323130         0.849766
 C        -1.596683        -2.595526         0.056860
 C        -1.728003        -1.239047        -0.654028
 O        -0.614704        -0.428720        -0.995768
 C         0.341136        -0.498800         0.145672
 C         1.555726         0.439879        -0.039527
 C         1.742923        -1.044203        -0.176190
 C        -0.505796        -0.705798         1.379571
 H        -3.022436        -1.738543         2.269932
 H        -0.655430        -3.066028         0.273980
 H        -2.443401        -3.256690        -0.005614
 H        -2.405710        -1.029140        -1.524096
 H         1.544217         1.068270        -0.867332
 H         1.951367         0.883172         0.937434
 H         1.754176        -1.509571        -1.111773
 H         2.311832        -1.590337         0.560145
 H         0.015744        -1.416960         2.094580
 H        -0.732384         0.217019         1.931535
