19
Iteration:  4260
 O        -3.122334        -0.947175         1.481984
 C        -1.863777        -1.327779         0.900588
 C        -1.564461        -2.571677         0.082085
 C        -1.681026        -1.271330        -0.634954
 O        -0.550282        -0.543597        -0.950074
 C         0.404405        -0.475017         0.148653
 C         1.551831         0.466345        -0.080674
 C         1.674356        -0.981782        -0.177114
 C        -0.519698        -0.809348         1.390790
 H        -3.347691        -1.652381         2.097147
 H        -0.705742        -3.223967         0.103675
 H        -2.471786        -2.991259        -0.248876
 H        -2.605896        -1.148410        -1.099535
 H         1.506099         1.075447        -0.923215
 H         1.829167         1.106477         0.819173
 H         1.987701        -1.350284        -1.117794
 H         2.319164        -1.354274         0.605534
 H        -0.006566        -1.582609         1.900145
 H        -0.581937         0.037701         2.101502
