19
Iteration:   126
 O        -2.841007        -1.045627         1.674908
 C        -1.778170        -1.370414         0.831383
 C        -1.437552        -2.568273         0.065128
 C        -1.773960        -1.238788        -0.674850
 O        -0.621594        -0.517823        -1.041731
 C         0.251084        -0.393837         0.061113
 C         1.472750         0.461062        -0.152728
 C         1.586590        -1.061166         0.022244
 C        -0.584960        -0.640819         1.325242
 H        -3.108147        -1.841480         2.180476
 H        -0.425728        -3.074477         0.192752
 H        -2.246953        -3.294832        -0.116257
 H        -2.509513        -1.248680        -1.477430
 H         1.447045         0.868891        -1.139065
 H         1.739801         1.057237         0.702054
 H         1.930769        -1.814601        -0.796403
 H         1.897954        -1.360149         0.982230
 H        -0.028485        -1.306295         2.026112
 H        -0.940019         0.197536         1.885195
