19
Iteration:   561
 O        -2.803662        -1.239646         1.794484
 C        -1.784841        -1.375741         0.858263
 C        -1.305470        -2.500316         0.000488
 C        -1.758644        -1.172183        -0.701081
 O        -0.636259        -0.353121        -1.018377
 C         0.244780        -0.421123         0.082915
 C         1.510628         0.283843        -0.165681
 C         1.486276        -1.218167         0.002340
 C        -0.670635        -0.473815         1.290091
 H        -3.653734        -1.380644         1.320519
 H        -0.273066        -2.809502         0.180601
 H        -2.065045        -3.295658        -0.121521
 H        -2.530121        -0.978148        -1.461616
 H         1.797893         0.725524        -1.067890
 H         1.784102         0.854323         0.701253
 H         1.760143        -1.835055        -0.759154
 H         1.881942        -1.573970         0.987247
 H        -0.164022        -0.882209         2.206698
 H        -0.978266         0.601582         1.497873
