19
Iteration:  4330
 O        -2.952978        -1.257810         1.620518
 C        -1.802871        -1.375724         0.837422
 C        -1.570696        -2.570986         0.006131
 C        -1.750154        -1.153287        -0.638687
 O        -0.580495        -0.476901        -1.044998
 C         0.318733        -0.338599         0.014817
 C         1.713722         0.322650        -0.043891
 C         1.496611        -1.177013         0.087291
 C        -0.612999        -0.373676         1.297570
 H        -2.839986        -1.927948         2.286691
 H        -0.566714        -3.020457         0.008064
 H        -2.433099        -3.217713        -0.292360
 H        -2.583093        -0.745794        -1.256885
 H         2.133112         0.977396        -0.871286
 H         1.998337         0.763873         0.820730
 H         1.692670        -1.625949        -0.937718
 H         1.951710        -1.730073         0.936151
 H        -0.006932        -0.847257         2.100732
 H        -1.138315         0.540587         1.570298
