19
Iteration:  3630
 O        -2.909715        -0.755652         1.544594
 C        -1.812974        -1.318267         0.886620
 C        -1.975665        -2.554936        -0.138055
 C        -1.722906        -1.106622        -0.672713
 O        -0.358692        -1.047184        -0.967882
 C         0.382888        -0.528080         0.173376
 C         1.056030         0.704093         0.026140
 C         1.897868        -0.706226        -0.157382
 C        -0.303653        -1.122148         1.423302
 H        -2.992434        -1.227820         2.360668
 H        -1.101050        -3.229695        -0.101354
 H        -2.973144        -3.022282        -0.121387
 H        -2.415090        -0.564666        -1.146488
 H         0.979181         1.432065        -0.761248
 H         1.033486         1.292388         0.954032
 H         2.152548        -0.816767        -1.159876
 H         2.520089        -1.155304         0.737928
 H         0.044735        -2.154097         1.411796
 H        -0.021762        -0.716320         2.402183
