19
Iteration:  3347
 O        -2.933221        -0.833598         1.594390
 C        -1.745465        -1.336248         0.917886
 C        -2.032549        -2.409561        -0.110824
 C        -1.746341        -1.102796        -0.633772
 O        -0.328609        -1.063822        -1.000243
 C         0.399005        -0.673215         0.130817
 C         1.204262         0.736379        -0.058748
 C         1.856528        -0.555637        -0.061927
 C        -0.351965        -1.229577         1.317570
 H        -3.224288        -1.273041         2.395102
 H        -1.404359        -3.333859        -0.136859
 H        -3.047448        -2.759108         0.115023
 H        -2.404474        -0.365453        -1.205575
 H         0.983230         1.084971        -1.063889
 H         1.058996         1.506796         0.778396
 H         2.369738        -0.877862        -0.974502
 H         2.319417        -0.813203         0.973260
 H         0.141814        -2.074645         1.768009
 H        -0.407900        -0.488906         2.130607
