19
Iteration:   598
 O        -2.963826        -1.220837         1.562765
 C        -1.752322        -1.376690         0.913410
 C        -1.545782        -2.557529         0.005709
 C        -1.761142        -1.232165        -0.603662
 O        -0.650309        -0.440084        -0.990036
 C         0.269195        -0.345932         0.077701
 C         1.667535         0.438101        -0.199068
 C         1.570177        -1.132072        -0.026953
 C        -0.502447        -0.506439         1.411797
 H        -3.457415        -2.006099         1.793134
 H        -0.707814        -3.221309         0.020147
 H        -2.373172        -3.231350         0.147476
 H        -2.689435        -0.990480        -1.128659
 H         1.810423         0.926622        -1.242222
 H         2.042130         0.931202         0.741422
 H         1.711399        -1.768378        -0.986977
 H         1.996404        -1.465950         0.882729
 H         0.090206        -1.071316         2.167253
 H        -0.756247         0.441637         1.796598
