19
Iteration:  4800charge 0 multiplicity 1
 O        -2.901300        -0.656999         1.501633
 C        -1.825854        -1.386507         0.853301
 C        -1.986413        -2.714426        -0.011915
 C        -1.728975        -1.259449        -0.592618
 O        -0.474847        -0.801236        -1.006907
 C         0.410559        -0.576954         0.061718
 C         1.218498         0.634453         0.043509
 C         1.885632        -0.703404        -0.053946
 C        -0.337446        -1.132715         1.323780
 H        -2.636325        -0.713539         2.434119
 H        -1.151452        -3.372673         0.019608
 H        -2.937094        -3.100756        -0.318553
 H        -2.530291        -0.741862        -1.035861
 H         1.124095         1.240911        -0.796056
 H         1.308246         1.385675         0.913231
 H         2.295447        -0.918837        -0.968495
 H         2.432533        -1.094829         0.747141
 H         0.084190        -1.948788         1.813605
 H        -0.415937        -0.328508         2.085343
