19
Iteration:  3064charge 0 multiplicity 1
 O        -3.032232        -1.150591         1.489509
 C        -1.837959        -1.301427         0.913201
 C        -1.444567        -2.567766        -0.001513
 C        -1.672328        -1.225310        -0.531081
 O        -0.703719        -0.363288        -0.998564
 C         0.312647        -0.466317         0.040277
 C         1.562095         0.313941        -0.039324
 C         1.635373        -1.172431        -0.172379
 C        -0.496849        -0.489501         1.410334
 H        -3.012646        -1.805559         2.206917
 H        -0.553747        -3.024694         0.335119
 H        -2.236206        -3.174705        -0.340374
 H        -2.677651        -1.129414        -1.099230
 H         1.724427         1.004138        -0.766632
 H         1.948969         0.646666         0.958430
 H         1.895926        -1.751329        -1.029025
 H         1.978980        -1.750158         0.699009
 H        -0.013434        -0.974651         2.287346
 H        -0.803384         0.506805         1.753944
