19
Iteration:   482charge 0 multiplicity 1
 O        -2.985191        -1.102173         1.601095
 C        -1.811591        -1.330062         0.880616
 C        -1.393617        -2.568823         0.049259
 C        -1.734962        -1.253631        -0.612596
 O        -0.648108        -0.446574        -0.983881
 C         0.242375        -0.471888         0.062819
 C         1.460089         0.422323        -0.236578
 C         1.661492        -1.058462        -0.033329
 C        -0.551824        -0.684673         1.424207
 H        -2.802623        -0.719621         2.472366
 H        -0.345516        -2.998813        -0.055483
 H        -2.164192        -3.423538        -0.050568
 H        -2.389044        -1.205148        -1.478658
 H         1.610176         0.823413        -1.223433
 H         1.786181         0.979164         0.587406
 H         1.869885        -1.690220        -1.000105
 H         2.079254        -1.496162         0.863837
 H         0.094231        -1.075127         2.149475
 H        -0.894789         0.340431         1.750601
