19
Iteration:  1708charge 0 multiplicity 1
 O        -3.027137        -1.131661         1.590911
 C        -1.756233        -1.355872         0.887141
 C        -1.590002        -2.593081         0.114131
 C        -1.708266        -1.158405        -0.645839
 O        -0.688514        -0.375599        -1.068032
 C         0.364544        -0.545653         0.087381
 C         1.530060         0.418802        -0.048269
 C         1.741747        -1.092434        -0.108492
 C        -0.564758        -0.609092         1.307060
 H        -3.157619        -1.872434         2.236521
 H        -0.715555        -3.143395         0.290285
 H        -2.449529        -3.169979        -0.065579
 H        -2.618195        -1.065111        -1.237129
 H         1.631060         1.009535        -0.924781
 H         2.050590         0.792493         0.864661
 H         2.165133        -1.569777        -0.946684
 H         2.296426        -1.445058         0.785419
 H        -0.022197        -1.165044         2.158544
 H        -0.758737         0.391634         1.651936
