19
Iteration:  4014charge 0 multiplicity 1
 O        -2.994804        -1.251221         1.588311
 C        -1.793888        -1.229958         0.893701
 C        -1.632865        -2.480295         0.012822
 C        -1.712275        -1.137591        -0.692377
 O        -0.548656        -0.522875        -1.081757
 C         0.326620        -0.489906         0.110076
 C         1.531564         0.435293        -0.096615
 C         1.675993        -1.166926        -0.009487
 C        -0.587735        -0.551977         1.416641
 H        -2.738364        -2.000024         2.193326
 H        -0.737056        -3.043577         0.085896
 H        -2.553018        -3.065352        -0.017000
 H        -2.565654        -0.855807        -1.167814
 H         1.762996         0.833693        -1.107766
 H         1.977444         1.093617         0.652912
 H         1.940303        -1.807986        -0.915093
 H         2.037472        -1.497523         0.941539
 H        -0.100837        -0.913203         2.360387
 H        -0.836619         0.508479         1.549658
