19
Iteration:  3604
 O        -2.814443        -0.735355         1.534225
 C        -1.789770        -1.327271         0.842470
 C        -2.083352        -2.562761         0.021078
 C        -1.654265        -1.168752        -0.658357
 O        -0.395111        -0.972903        -1.115641
 C         0.381902        -0.712578         0.119457
 C         1.078671         0.676170         0.129626
 C         1.890896        -0.496444        -0.068908
 C        -0.353576        -1.218539         1.316044
 H        -2.863822        -1.294201         2.293244
 H        -1.373269        -3.372860         0.240108
 H        -3.160249        -2.732543        -0.092974
 H        -2.658936        -0.739883        -1.179638
 H         1.141007         1.466839        -0.700581
 H         1.349801         1.275910         1.076384
 H         2.298530        -0.806387        -1.108130
 H         2.423055        -0.825501         0.749052
 H        -0.036360        -2.133287         1.826832
 H        -0.218679        -0.380888         2.073954
