19
Iteration:  3969
 O        -2.999411        -1.167512         1.503118
 C        -1.743184        -1.333172         0.855005
 C        -1.346614        -2.579576         0.080885
 C        -1.623428        -1.185318        -0.584812
 O        -0.639315        -0.305779        -1.004025
 C         0.236296        -0.457878         0.098241
 C         1.588371         0.254464        -0.070740
 C         1.493024        -1.209434        -0.118862
 C        -0.611394        -0.432365         1.393007
 H        -3.289899        -1.969950         1.981433
 H        -0.330888        -2.933445         0.215707
 H        -2.151368        -3.302973         0.003537
 H        -2.643881        -1.227380        -1.038969
 H         1.627406         0.834174        -1.021680
 H         2.057921         0.729182         0.708422
 H         1.608176        -1.664862        -1.101934
 H         1.759544        -1.797215         0.799093
 H        -0.199159        -0.941721         2.297280
 H        -0.951294         0.587736         1.637551
