19
Iteration:  1570
 O        -2.813064        -0.769118         1.536351
 C        -1.737582        -1.360111         0.884661
 C        -1.815501        -2.613199        -0.002059
 C        -1.783878        -1.240599        -0.699984
 O        -0.493142        -0.713299        -1.088928
 C         0.348915        -0.569934         0.117633
 C         1.160716         0.593943         0.062798
 C         1.784367        -0.859195        -0.118956
 C        -0.359823        -0.969602         1.432051
 H        -3.158752        -1.422831         2.137220
 H        -0.926039        -3.341918         0.020855
 H        -2.886284        -3.228956        -0.092225
 H        -2.706487        -0.845100        -1.002323
 H         1.052363         1.253867        -0.829362
 H         1.435345         1.227386         0.944114
 H         2.095731        -1.179788        -1.145334
 H         2.401290        -0.980548         0.851103
 H         0.052467        -1.870662         1.871100
 H        -0.434243        -0.254342         2.266388
