19
Iteration:  2010charge 0 multiplicity 1
 O        -2.866559        -0.953697         1.642496
 C        -1.790880        -1.383026         0.868931
 C        -1.846141        -2.600387        -0.030237
 C        -1.760033        -1.196688        -0.640622
 O        -0.531261        -0.619470        -1.063216
 C         0.357524        -0.565381         0.091094
 C         1.341043         0.570331         0.005821
 C         1.826200        -0.922665        -0.035270
 C        -0.456437        -0.834346         1.319916
 H        -3.232416        -1.604123         2.259887
 H        -0.932669        -3.177372        -0.197386
 H        -2.779248        -3.108567        -0.151944
 H        -2.528438        -0.643963        -1.279010
 H         1.285363         1.060426        -0.991438
 H         1.571643         1.102379         0.971028
 H         2.229172        -1.300092        -1.047813
 H         2.500849        -1.270565         0.785924
 H         0.107370        -1.473551         1.956336
 H        -0.724532         0.181858         1.772986
