19
Iteration:  2903
 O        -3.056335        -0.951656         1.425671
 C        -1.756817        -1.376637         0.942023
 C        -1.614727        -2.601924         0.048264
 C        -1.756024        -1.189165        -0.502829
 O        -0.602578        -0.522008        -1.016653
 C         0.339695        -0.552240         0.071884
 C         1.445002         0.476898         0.029810
 C         1.785717        -1.006545        -0.216662
 C        -0.439834        -0.766758         1.406187
 H        -3.351124        -1.668076         2.035521
 H        -0.625882        -3.000203        -0.053266
 H        -2.462229        -3.196450        -0.112621
 H        -2.696060        -0.733699        -1.032132
 H         1.417988         1.018903        -0.900147
 H         1.717289         1.038445         0.932119
 H         2.127941        -1.329516        -1.177716
 H         2.231949        -1.526302         0.612484
 H         0.010652        -1.535462         2.131196
 H        -0.681998         0.122817         1.973929
