19
Iteration:  3788
 O        -3.016775        -0.880031         1.527197
 C        -1.802912        -1.274644         0.878890
 C        -1.829484        -2.588812         0.014600
 C        -1.711851        -1.225491        -0.652913
 O        -0.431191        -0.798527        -1.051115
 C         0.324095        -0.495320         0.127450
 C         1.353033         0.569777         0.099765
 C         1.746725        -0.807114        -0.223138
 C        -0.377794        -0.920399         1.440298
 H        -3.112346        -1.443025         2.312724
 H        -0.856566        -3.126545        -0.147056
 H        -2.607259        -3.315541        -0.111417
 H        -2.557288        -0.781020        -1.301566
 H         1.409649         1.219430        -0.809322
 H         1.462283         0.978871         1.133126
 H         2.080614        -1.033108        -1.170006
 H         2.456530        -1.316125         0.511599
 H         0.162470        -1.823590         1.784378
 H        -0.508880        -0.185957         2.259214
