19
Iteration:   744charge 0 multiplicity 1
 O        -2.900190        -1.045780         1.744657
 C        -1.800272        -1.250892         0.818557
 C        -1.802996        -2.505550        -0.084340
 C        -1.794494        -1.147662        -0.681465
 O        -0.438147        -0.937526        -1.016071
 C         0.389508        -0.540550         0.160382
 C         1.261670         0.620399         0.004592
 C         1.814483        -0.816852        -0.164035
 C        -0.407935        -0.758156         1.399408
 H        -3.447866        -1.875213         1.655480
 H        -0.945048        -3.244923        -0.193452
 H        -2.709797        -3.067673        -0.146284
 H        -2.327821        -0.428902        -1.291909
 H         1.096854         1.085079        -0.953633
 H         1.457646         1.166528         0.780065
 H         1.864525        -1.132913        -1.239068
 H         2.362349        -1.331051         0.598510
 H        -0.032082        -1.422815         2.078080
 H        -0.631064         0.178530         1.928592
