19
Iteration:  2698charge 0 multiplicity 1
 O        -2.940848        -1.068626         1.641048
 C        -1.763092        -1.363820         0.821687
 C        -1.593717        -2.536478         0.008357
 C        -1.753558        -1.246717        -0.712884
 O        -0.585713        -0.403100        -1.007364
 C         0.270433        -0.481259         0.108359
 C         1.514435         0.380695        -0.027604
 C         1.705157        -1.119392        -0.073175
 C        -0.560128        -0.639219         1.358001
 H        -3.135758        -1.707064         2.376070
 H        -0.663972        -3.040460        -0.020086
 H        -2.392354        -3.258562        -0.021158
 H        -2.744261        -0.939463        -1.355678
 H         1.775441         0.877662        -0.965257
 H         1.804734         1.032147         0.816508
 H         1.977797        -1.492219        -1.033116
 H         2.207064        -1.606831         0.741105
 H        -0.056357        -1.161927         2.156695
 H        -0.998287         0.335071         1.674488
