19
Iteration:  3830
 O        -2.890266        -0.967821         1.678351
 C        -1.854986        -1.368289         0.801750
 C        -1.824700        -2.586887        -0.047432
 C        -1.781916        -1.237204        -0.706905
 O        -0.558157        -0.614535        -1.048156
 C         0.334954        -0.538584         0.074308
 C         1.425780         0.509191        -0.069666
 C         1.897841        -0.937895         0.057759
 C        -0.438467        -0.722869         1.394610
 H        -3.335864        -1.850654         1.851466
 H        -0.905796        -3.216098        -0.062345
 H        -2.656628        -3.241673        -0.184853
 H        -2.646815        -0.772076        -1.345459
 H         1.399221         1.129593        -0.985090
 H         1.349041         1.090006         0.855473
 H         2.178551        -1.160674        -0.930427
 H         2.458865        -1.386647         0.962505
 H         0.030975        -1.471829         2.076104
 H        -0.610654         0.201035         1.929196
