19
Iteration:   515
 O        -2.923507        -1.406427         1.608085
 C        -1.698401        -1.296397         0.928256
 C        -1.498423        -2.559383         0.167423
 C        -1.753558        -1.156191        -0.602463
 O        -0.633731        -0.474938        -1.065714
 C         0.297527        -0.410089        -0.024440
 C         1.596647         0.382519        -0.004812
 C         1.523242        -1.137087        -0.127713
 C        -0.565876        -0.416168         1.291328
 H        -3.292523        -0.517343         1.886574
 H        -0.492241        -3.006107        -0.041034
 H        -2.488831        -3.212695         0.251519
 H        -2.667334        -1.180121        -1.186137
 H         1.835495         1.051178        -0.776693
 H         2.014343         0.664825         0.932830
 H         1.611187        -1.653630        -1.179022
 H         1.858688        -1.705414         0.715105
 H        -0.004509        -0.475053         2.187652
 H        -1.085983         0.649038         1.302324
