19
Iteration:  1917charge 0 multiplicity 1
 O        -2.990631        -0.925071         1.489256
 C        -1.776667        -1.295144         0.853713
 C        -1.724596        -2.623968        -0.076956
 C        -1.744327        -1.188847        -0.559840
 O        -0.528311        -0.698416        -0.943306
 C         0.329550        -0.474056         0.200936
 C         1.432482         0.572905        -0.041814
 C         1.717020        -0.912366        -0.220039
 C        -0.448893        -0.867489         1.447222
 H        -3.037846        -1.534323         2.248770
 H        -0.669449        -3.119116        -0.075307
 H        -2.625066        -3.321322        -0.072773
 H        -2.652609        -0.810230        -1.119928
 H         1.202104         1.190285        -0.884868
 H         2.048910         0.828810         0.869769
 H         1.880286        -1.345994        -1.236377
 H         2.406546        -1.369230         0.555067
 H         0.117049        -1.681847         2.028107
 H        -0.600222         0.021812         2.014078
