19
Iteration:   651
 O        -2.950156        -1.027648         1.617854
 C        -1.846225        -1.300658         0.817394
 C        -1.545005        -2.610961         0.055518
 C        -1.753974        -1.226421        -0.641088
 O        -0.584470        -0.573220        -0.996133
 C         0.270822        -0.523703         0.091637
 C         1.343844         0.408980         0.038592
 C         1.804605        -0.969370        -0.200945
 C        -0.504260        -0.694229         1.352244
 H        -2.762504        -0.937380         2.547082
 H        -0.572083        -2.976843        -0.167683
 H        -2.292858        -3.342307        -0.197879
 H        -2.611095        -1.000291        -1.277329
 H         1.419919         1.227352        -0.789061
 H         1.574005         0.915423         1.057672
 H         1.957899        -1.301677        -1.284573
 H         2.430734        -1.515560         0.442207
 H        -0.050794        -1.385047         2.166335
 H        -0.598649         0.334210         1.697930
