19
Iteration:  1493
 O        -2.837506        -0.873694         1.643500
 C        -1.739529        -1.357134         0.909783
 C        -2.016289        -2.540261        -0.071850
 C        -1.690289        -1.137009        -0.646870
 O        -0.387771        -0.902207        -1.033852
 C         0.372280        -0.585708         0.087749
 C         1.160330         0.578991        -0.017137
 C         1.811751        -0.728235        -0.069456
 C        -0.386558        -0.922420         1.367277
 H        -3.362973        -1.604796         2.041668
 H        -1.127047        -3.289905        -0.161261
 H        -3.000421        -3.074118        -0.265365
 H        -2.367537        -0.457914        -1.203814
 H         1.020555         1.224895        -0.879431
 H         1.249515         1.295174         0.726140
 H         2.240784        -0.946720        -1.102608
 H         2.360310        -1.146403         0.747408
 H         0.099518        -1.729896         1.811662
 H        -0.452882        -0.150248         2.122068
