19
Iteration:  4391charge 0 multiplicity 1
 O        -3.012674        -1.244425         1.574514
 C        -1.736848        -1.322942         0.889672
 C        -1.454281        -2.570968         0.004339
 C        -1.732923        -1.131728        -0.692220
 O        -0.607801        -0.393575        -1.071276
 C         0.246348        -0.379705         0.137076
 C         1.681510         0.270115        -0.130092
 C         1.523087        -1.173276         0.068455
 C        -0.590307        -0.455718         1.391646
 H        -3.121251        -1.990274         2.153624
 H        -0.460107        -2.996607         0.009326
 H        -2.236728        -3.332586        -0.045027
 H        -2.721644        -0.752010        -1.256396
 H         1.589254         0.536134        -1.195116
 H         2.340606         0.794051         0.580320
 H         1.783707        -1.672985        -0.895415
 H         1.881537        -1.612759         1.031723
 H        -0.063257        -0.723854         2.303110
 H        -1.122194         0.545264         1.536015
