19
Iteration:  4174charge 0 multiplicity 1
 O        -2.896080        -1.019226         1.651890
 C        -1.813789        -1.255615         0.822596
 C        -1.843504        -2.501850        -0.022430
 C        -1.776918        -1.161188        -0.705160
 O        -0.484997        -0.773735        -1.123493
 C         0.343140        -0.550779         0.100660
 C         1.349762         0.581235        -0.022360
 C         1.794563        -0.869370         0.047056
 C        -0.453705        -0.840166         1.325623
 H        -2.731909        -1.349475         2.577958
 H        -1.011853        -3.163609         0.015117
 H        -2.831758        -2.917901        -0.063219
 H        -2.496511        -1.059290        -1.430858
 H         1.736965         1.137474        -0.846594
 H         1.457007         1.086232         0.917721
 H         2.359087        -1.392126        -0.779502
 H         2.045257        -1.378708         1.008227
 H         0.057496        -1.685237         1.799245
 H        -0.497761        -0.007123         2.089095
