19
Iteration:  3342
 O        -2.930281        -0.831725         1.595089
 C        -1.783535        -1.362398         0.913826
 C        -2.035486        -2.392050        -0.113533
 C        -1.759760        -1.132713        -0.626998
 O        -0.328146        -1.082192        -1.010156
 C         0.388529        -0.652276         0.107489
 C         1.201822         0.768059        -0.070091
 C         1.851848        -0.576470        -0.004272
 C        -0.296944        -1.212286         1.328823
 H        -3.216753        -1.242636         2.440552
 H        -1.284627        -3.130746        -0.311874
 H        -3.077034        -2.680174        -0.038657
 H        -2.437247        -0.451952        -1.050670
 H         1.089093         1.217412        -1.064733
 H         1.156106         1.464159         0.690443
 H         2.210968        -0.970038        -0.971823
 H         2.245306        -0.886630         0.888978
 H         0.231278        -2.113494         1.781820
 H        -0.383792        -0.463714         2.153735
