19
Iteration:  1413charge 0 multiplicity 1
 O        -2.831144        -0.735335         1.602558
 C        -1.735821        -1.353537         0.816826
 C        -2.084423        -2.616087         0.003969
 C        -1.792868        -1.208895        -0.645808
 O        -0.363072        -0.982458        -1.070425
 C         0.375181        -0.594529         0.122664
 C         1.126676         0.704104         0.131601
 C         1.937398        -0.610691        -0.172400
 C        -0.378338        -1.112983         1.346979
 H        -3.058706        -1.388794         2.288835
 H        -1.308446        -3.299038         0.027327
 H        -3.099403        -2.959091        -0.012456
 H        -2.372809        -0.513180        -1.338216
 H         1.032708         1.342278        -0.759192
 H         1.258056         1.210262         1.149932
 H         2.224916        -0.776573        -1.188600
 H         2.593886        -0.930955         0.658644
 H         0.118167        -1.939279         1.617942
 H        -0.460245        -0.346308         2.094375
