19
Iteration:   582charge 0 multiplicity 1
 O        -2.908486        -1.159015         1.662040
 C        -1.672670        -1.334782         0.871973
 C        -1.430051        -2.601237        -0.020938
 C        -1.726518        -1.218753        -0.607547
 O        -0.716437        -0.348974        -1.066730
 C         0.240521        -0.373434         0.115600
 C         1.515806         0.312781        -0.153087
 C         1.552879        -1.171744         0.041112
 C        -0.508432        -0.509147         1.389137
 H        -3.428946        -1.899548         1.327091
 H        -0.393111        -2.913217        -0.237573
 H        -2.209546        -3.377055        -0.264928
 H        -2.666450        -1.112307        -1.150249
 H         1.500214         0.514602        -1.175894
 H         2.070931         1.039490         0.383624
 H         1.796745        -1.806527        -0.747410
 H         1.844349        -1.633429         1.033533
 H         0.092268        -0.945827         2.209474
 H        -1.082381         0.438517         1.771796
