19
Iteration:  3085
 O        -3.088342        -1.097656         1.454801
 C        -1.773020        -1.339236         0.932821
 C        -1.497955        -2.551162         0.152058
 C        -1.759015        -1.207423        -0.607738
 O        -0.632481        -0.397110        -1.034664
 C         0.329097        -0.442130         0.075912
 C         1.521066         0.399869         0.025776
 C         1.628031        -1.133396        -0.165312
 C        -0.457939        -0.697123         1.328842
 H        -2.950737        -1.495023         2.341237
 H        -0.506967        -2.851656        -0.106423
 H        -2.241775        -3.304165         0.295137
 H        -2.733838        -1.002343        -1.177820
 H         1.803745         0.822679        -0.860822
 H         1.795844         1.065572         0.879894
 H         1.957434        -1.430235        -1.146447
 H         2.158636        -1.738823         0.572988
 H         0.152839        -1.317996         1.976195
 H        -0.612045         0.231986         1.891687
