19
Iteration:  3779
 O        -2.989313        -0.855131         1.471172
 C        -1.848661        -1.360207         0.826558
 C        -1.864964        -2.621531        -0.003687
 C        -1.781521        -1.259150        -0.622758
 O        -0.464912        -0.806921        -0.973220
 C         0.329994        -0.474616         0.126263
 C         1.403863         0.611303         0.122817
 C         1.825407        -0.761423        -0.237034
 C        -0.370417        -0.948176         1.423436
 H        -2.948761        -1.313463         2.329939
 H        -0.945635        -3.203063        -0.213665
 H        -2.779421        -3.175498         0.169455
 H        -2.523237        -0.800921        -1.200586
 H         1.512900         1.289118        -0.810719
 H         1.867658         1.159866         0.969973
 H         2.009429        -0.891157        -1.266140
 H         2.277363        -1.315026         0.601188
 H         0.036554        -1.840901         1.891524
 H        -0.381651        -0.142023         2.231677
