19
Iteration:  2865
 O        -2.906815        -0.983736         1.640056
 C        -1.811799        -1.318049         0.812159
 C        -1.829311        -2.627428         0.017002
 C        -1.714113        -1.152712        -0.656903
 O        -0.505968        -0.669182        -1.148939
 C         0.376585        -0.498252         0.125353
 C         1.457528         0.552845         0.025756
 C         1.824962        -0.911151        -0.095173
 C        -0.628942        -0.828498         1.426202
 H        -2.736552        -1.551347         2.446900
 H        -0.963178        -3.308281        -0.117875
 H        -2.762994        -3.222538        -0.280535
 H        -2.556246        -0.802307        -1.096923
 H         1.220825         1.114948        -0.854404
 H         1.916503         1.222467         0.815694
 H         2.077657        -1.330926        -1.081841
 H         2.310151        -1.416780         0.805431
 H        -0.073519        -1.559406         1.933137
 H        -0.741336         0.112039         2.017532
