19
Iteration:  1720charge 0 multiplicity 1
 O        -3.059989        -1.124069         1.616667
 C        -1.867314        -1.277218         0.888925
 C        -1.452149        -2.555825         0.000730
 C        -1.728349        -1.244254        -0.561367
 O        -0.623465        -0.433330        -1.062606
 C         0.327890        -0.468188         0.064338
 C         1.550874         0.398929         0.015191
 C         1.670392        -1.158858        -0.177069
 C        -0.491095        -0.567326         1.360230
 H        -3.109714        -1.868555         2.214640
 H        -0.518698        -3.033767         0.064355
 H        -2.299196        -3.248203        -0.167975
 H        -2.534103        -1.171665        -1.194933
 H         1.581489         0.937117        -0.908340
 H         1.861069         0.979811         0.926518
 H         1.817246        -1.511387        -1.150153
 H         2.040295        -1.736419         0.718474
 H        -0.001088        -0.986791         2.312193
 H        -0.845475         0.447933         1.528905
