19
Iteration:  2209charge 0 multiplicity 1
 O        -3.013682        -1.211545         1.539911
 C        -1.739232        -1.339087         0.892478
 C        -1.483336        -2.546904         0.060625
 C        -1.722703        -1.150108        -0.622580
 O        -0.641319        -0.364623        -1.108673
 C         0.272041        -0.375464         0.057650
 C         1.602689         0.355872        -0.047954
 C         1.517395        -1.177750        -0.062347
 C        -0.484340        -0.579405         1.400759
 H        -3.096511        -1.825543         2.304383
 H        -0.547530        -3.063992         0.295202
 H        -2.387519        -3.160199         0.112341
 H        -2.625016        -1.016480        -1.122148
 H         1.893389         0.989210        -0.961249
 H         2.022647         0.758993         0.856869
 H         1.714953        -1.659396        -1.053051
 H         1.852190        -1.831405         0.719732
 H         0.114824        -1.150553         2.154793
 H        -0.832432         0.351668         1.941961
