19
Iteration:  4878
 O        -2.810684        -0.828101         1.716438
 C        -1.818724        -1.381631         0.853329
 C        -2.132529        -2.553143        -0.190525
 C        -1.741799        -1.131937        -0.545488
 O        -0.379888        -1.087657        -1.003502
 C         0.434617        -0.647280         0.103641
 C         1.258458         0.713011        -0.035534
 C         1.951152        -0.652550        -0.078680
 C        -0.449937        -0.955903         1.352067
 H        -3.676316        -1.147642         1.491434
 H        -1.275517        -3.242227        -0.135204
 H        -3.076652        -3.095030        -0.272548
 H        -2.341519        -0.420924        -1.086021
 H         1.222242         1.336394        -1.049444
 H         1.528011         1.303700         0.827797
 H         2.159752        -0.909356        -1.160849
 H         2.452605        -0.869190         0.862276
 H        -0.006666        -1.587450         2.094402
 H        -0.752376        -0.009415         1.824876
