19
Iteration:  3583
 O        -2.751041        -0.607034         1.613294
 C        -1.751421        -1.394087         0.858924
 C        -2.168687        -2.607420        -0.001605
 C        -1.693343        -1.326611        -0.675781
 O        -0.358658        -0.939604        -1.088124
 C         0.447712        -0.624826         0.002284
 C         1.016981         0.693589         0.214259
 C         1.919193        -0.589716        -0.025926
 C        -0.302655        -1.173389         1.267730
 H        -3.307916        -1.278975         2.114147
 H        -1.513329        -3.416156        -0.330904
 H        -3.248906        -2.777601        -0.137743
 H        -2.624567        -0.920700        -1.233893
 H         0.790178         1.358972        -0.707798
 H         0.750470         1.365852         1.077157
 H         2.320059        -0.540990        -1.103775
 H         2.474324        -0.902545         0.785081
 H         0.219710        -2.040010         1.649203
 H        -0.511493        -0.426510         2.108030
