19
Iteration:  4274
 O        -3.108505        -0.968369         1.493665
 C        -1.861613        -1.291180         0.867746
 C        -1.528999        -2.606317         0.044994
 C        -1.694763        -1.263125        -0.618129
 O        -0.581263        -0.448824        -1.032521
 C         0.298223        -0.506487         0.130636
 C         1.448674         0.478580        -0.021972
 C         1.803232        -1.102995        -0.169688
 C        -0.484453        -0.736993         1.470853
 H        -3.217430        -1.458128         2.336455
 H        -0.468275        -2.900488         0.183227
 H        -2.190472        -3.473975        -0.077299
 H        -2.472618        -1.083467        -1.471095
 H         1.362368         0.997508        -0.941254
 H         1.952553         0.935679         0.798964
 H         1.839254        -1.492111        -1.208592
 H         2.267186        -1.715820         0.706522
 H        -0.038086        -1.552742         2.059370
 H        -0.585548         0.182345         2.080267
