19
Iteration:  4805charge 0 multiplicity 1
 O        -2.941852        -0.639620         1.536977
 C        -1.852916        -1.403531         0.863696
 C        -1.965035        -2.665355        -0.054683
 C        -1.744366        -1.283712        -0.592275
 O        -0.467704        -0.821270        -1.008450
 C         0.373892        -0.577545         0.101924
 C         1.222195         0.652199         0.064780
 C         1.934786        -0.716072        -0.057071
 C        -0.337949        -1.135866         1.273207
 H        -2.686054        -0.688798         2.472407
 H        -1.096287        -3.349785         0.142235
 H        -2.889467        -3.244586        -0.296917
 H        -2.612467        -0.765452        -1.118551
 H         1.190080         1.279660        -0.899533
 H         1.344247         1.393464         0.793042
 H         2.340639        -0.928873        -1.127981
 H         2.511658        -1.022279         0.880073
 H         0.205262        -2.010023         1.806840
 H        -0.139609        -0.323032         1.994895
