19
Iteration:  1751charge 0 multiplicity 1
 O        -2.908096        -1.196001         1.497540
 C        -1.745438        -1.285756         0.856850
 C        -1.377563        -2.532329         0.068832
 C        -1.738442        -1.204270        -0.604106
 O        -0.638477        -0.417271        -1.089747
 C         0.269904        -0.362270         0.139077
 C         1.581915         0.328475         0.007788
 C         1.446475        -1.216896        -0.174124
 C        -0.604932        -0.508636         1.421424
 H        -2.800944        -1.671791         2.365653
 H        -0.464054        -2.989059         0.053672
 H        -2.228239        -3.166216         0.184233
 H        -2.656088        -1.107636        -1.118673
 H         1.645156         0.931733        -0.854968
 H         2.155985         0.568866         0.926882
 H         1.448963        -1.800788        -1.026726
 H         2.008144        -1.706038         0.658335
 H        -0.118365        -0.897287         2.357697
 H        -1.046513         0.448148         1.632654
