19
Iteration:  4612
 O        -2.884201        -0.659975         1.478543
 C        -1.822315        -1.365054         0.884203
 C        -1.871097        -2.653025        -0.057607
 C        -1.768263        -1.292922        -0.580093
 O        -0.497981        -0.804310        -0.982023
 C         0.407849        -0.599065         0.138958
 C         1.282534         0.619134         0.093433
 C         1.849619        -0.753997        -0.195800
 C        -0.405345        -1.023067         1.399089
 H        -3.302846        -1.195874         2.157839
 H        -0.895831        -3.173271        -0.018050
 H        -2.760534        -3.334023        -0.155841
 H        -2.607549        -0.902300        -1.208703
 H         1.278131         1.240769        -0.817046
 H         1.416976         1.255709         0.971964
 H         1.986192        -0.760279        -1.315897
 H         2.517725        -1.334885         0.530622
 H         0.084322        -1.956579         1.821063
 H        -0.488033        -0.182522         2.204290
