19
Iteration:  3628
 O        -2.905249        -0.754808         1.539418
 C        -1.812695        -1.304999         0.888420
 C        -1.971689        -2.558886        -0.114827
 C        -1.747963        -1.125030        -0.679625
 O        -0.352743        -1.042697        -0.975920
 C         0.386369        -0.532555         0.173227
 C         1.067440         0.716426         0.033236
 C         1.895840        -0.711523        -0.145148
 C        -0.304749        -1.135645         1.405792
 H        -2.982097        -1.233987         2.407273
 H        -1.089329        -3.214660        -0.141894
 H        -2.992455        -2.994963        -0.072874
 H        -2.393779        -0.461045        -1.256373
 H         0.853134         1.445766        -0.800052
 H         1.011638         1.300356         1.040994
 H         2.222051        -0.796592        -1.175802
 H         2.536334        -1.166738         0.685028
 H         0.038642        -2.153722         1.423846
 H        -0.035233        -0.732858         2.440096
