19
Iteration:  2070
 O        -2.993979        -0.941971         1.531017
 C        -1.825075        -1.304951         0.908876
 C        -1.510873        -2.603705        -0.091167
 C        -1.741158        -1.217679        -0.651142
 O        -0.623506        -0.596751        -0.978457
 C         0.339701        -0.497762         0.142753
 C         1.417625         0.484506         0.010830
 C         1.707296        -1.037258        -0.219778
 C        -0.474819        -0.739631         1.475728
 H        -3.202244        -1.488704         2.338151
 H        -0.526056        -3.038646        -0.047507
 H        -2.354487        -3.298758        -0.206169
 H        -2.512116        -0.970139        -1.286700
 H         1.449570         1.298499        -0.735373
 H         1.843894         0.860536         0.854760
 H         1.719374        -1.450633        -1.206477
 H         2.226849        -1.485152         0.573743
 H         0.045752        -1.488684         2.171815
 H        -0.583424         0.094510         2.088566
