19
Iteration:  4495charge 0 multiplicity 1
 O        -2.896798        -0.989528         1.463534
 C        -1.707730        -1.430500         0.817283
 C        -1.887566        -2.625914         0.090834
 C        -1.686412        -1.154805        -0.614772
 O        -0.497157        -0.617376        -1.036051
 C         0.348969        -0.480503         0.109634
 C         1.414677         0.475612        -0.065804
 C         1.751583        -0.906855        -0.076410
 C        -0.493405        -0.725610         1.449063
 H        -3.150867        -1.667631         2.134507
 H        -1.355311        -3.561747         0.103729
 H        -2.975030        -2.786507        -0.010236
 H        -2.628924        -0.795417        -1.110966
 H         1.509853         1.068827        -0.956192
 H         1.739231         1.134095         0.857867
 H         2.042060        -1.286081        -1.027483
 H         2.296689        -1.194132         0.788467
 H         0.077165        -1.575822         1.999154
 H        -0.939428        -0.029675         2.157815
