19
Iteration:   791charge 0 multiplicity 1
 O        -2.913556        -0.868948         1.700466
 C        -1.798368        -1.413823         0.867621
 C        -1.985535        -2.612133        -0.097698
 C        -1.797693        -1.282661        -0.604860
 O        -0.497970        -0.734207        -1.060794
 C         0.413771        -0.564119         0.031268
 C         1.274087         0.650998        -0.067657
 C         1.899616        -0.728839         0.054530
 C        -0.325844        -0.951287         1.305238
 H        -3.107953        -1.550034         2.351011
 H        -1.173305        -3.221409        -0.311158
 H        -2.933679        -3.184539        -0.083420
 H        -2.596334        -0.847411        -1.327593
 H         1.412417         0.981356        -1.081006
 H         1.289796         1.578383         0.694038
 H         2.463175        -0.908323        -0.831656
 H         2.373480        -1.122260         1.016255
 H         0.206585        -1.790263         1.849867
 H        -0.323896        -0.054063         1.930246
