19
Iteration:  3190
 O        -2.911423        -0.943911         1.646612
 C        -1.787544        -1.330029         0.866740
 C        -1.853064        -2.481418         0.005641
 C        -1.786546        -1.107651        -0.649105
 O        -0.429003        -0.845189        -1.074554
 C         0.353485        -0.547904         0.099096
 C         1.273229         0.657257        -0.043998
 C         1.816804        -0.854958        -0.012840
 C        -0.456210        -0.966460         1.319019
 H        -3.047479        -1.618308         2.325851
 H        -1.036539        -3.237615        -0.185177
 H        -2.821337        -3.009946        -0.169978
 H        -2.467465        -0.730872        -1.432666
 H         1.287325         1.178368        -0.973838
 H         1.613252         1.086579         0.962689
 H         2.233913        -1.153020        -0.983927
 H         2.535244        -1.061904         0.801446
 H         0.086767        -1.791630         1.819314
 H        -0.473481        -0.054359         1.970885
