19
Iteration:  1332
 O        -2.735550        -0.651105         1.701971
 C        -1.814171        -1.406452         0.896361
 C        -2.243253        -2.556276        -0.030437
 C        -1.740245        -1.244671        -0.691295
 O        -0.286363        -1.120285        -1.119821
 C         0.437635        -0.616182         0.069851
 C         1.013653         0.803954         0.050706
 C         1.946433        -0.439849        -0.066346
 C        -0.335524        -1.258585         1.295130
 H        -3.405146        -1.256778         2.009479
 H        -1.561481        -3.486939        -0.093534
 H        -3.341996        -2.711552        -0.215452
 H        -2.367552        -0.564844        -1.153239
 H         0.766632         1.476957        -0.727585
 H         0.990106         1.297547         0.993177
 H         2.582568        -0.829344        -0.855179
 H         2.650004        -0.700828         0.790228
 H         0.180826        -2.166156         1.682573
 H        -0.116927        -0.696392         2.265813
