19
Iteration:  1687
 O        -2.960571        -1.083240         1.577171
 C        -1.741045        -1.304024         0.815467
 C        -1.753137        -2.671035         0.015569
 C        -1.775227        -1.241052        -0.591257
 O        -0.583939        -0.483297        -1.008738
 C         0.328394        -0.393315         0.114560
 C         1.467560         0.487184        -0.087470
 C         1.770932        -1.065938        -0.048776
 C        -0.452536        -0.698937         1.345294
 H        -3.007311        -1.767443         2.270181
 H        -0.821166        -3.123884        -0.038592
 H        -2.717666        -3.123692         0.033078
 H        -2.535015        -0.918551        -1.270995
 H         1.662409         0.830573        -1.082152
 H         1.732573         1.376493         0.546816
 H         2.035184        -1.476597        -0.981699
 H         2.134873        -1.510226         0.892920
 H         0.014882        -1.354330         2.173713
 H        -0.742613         0.192109         1.901047
