19
Iteration:  4034
 O        -2.886303        -1.083214         1.582067
 C        -1.747586        -1.326119         0.900362
 C        -1.684408        -2.629244        -0.108040
 C        -1.789833        -1.145460        -0.635901
 O        -0.528091        -0.593902        -1.036166
 C         0.305023        -0.448887         0.101055
 C         1.441929         0.410349        -0.035301
 C         1.667302        -1.067223         0.086339
 C        -0.494070        -0.535386         1.293659
 H        -2.966545        -1.772810         2.299111
 H        -0.838211        -3.212691        -0.331615
 H        -2.656207        -3.093106        -0.033954
 H        -2.518467        -0.716913        -1.232273
 H         1.554403         0.891898        -1.020927
 H         1.621074         0.977549         0.768089
 H         1.948583        -1.547771        -0.896170
 H         2.010931        -1.608809         0.952755
 H         0.163998        -1.081568         1.993973
 H        -0.882075         0.314331         1.840842
