19
Iteration:  3657charge 0 multiplicity 1
 O        -2.843462        -0.817640         1.550190
 C        -1.771594        -1.437330         0.901017
 C        -2.088390        -2.539450        -0.056327
 C        -1.708912        -1.122149        -0.662254
 O        -0.363312        -0.964837        -1.046625
 C         0.420407        -0.632802         0.191302
 C         1.209220         0.753530        -0.034138
 C         1.906682        -0.663416        -0.084639
 C        -0.408057        -1.128266         1.401334
 H        -3.288251        -1.412088         2.133384
 H        -1.437572        -3.327499        -0.409109
 H        -3.152044        -2.815212        -0.036741
 H        -2.556712        -0.359295        -1.099523
 H         0.603088         1.358906        -0.729831
 H         1.374372         1.491278         0.789029
 H         2.290424        -0.902251        -1.121301
 H         2.451121        -0.826828         0.775833
 H         0.041825        -1.862429         2.104713
 H        -0.528049        -0.189387         1.960470
