19
Iteration:   752
 O        -2.854246        -1.062863         1.708919
 C        -1.742315        -1.258995         0.840372
 C        -1.883819        -2.508094        -0.036651
 C        -1.803352        -1.113569        -0.707840
 O        -0.381729        -0.934562        -1.012849
 C         0.346304        -0.559734         0.128287
 C         1.291078         0.629802        -0.022892
 C         1.758683        -0.782284        -0.119765
 C        -0.442318        -0.789364         1.391048
 H        -3.391599        -1.894779         1.671076
 H        -0.977137        -3.124650        -0.322122
 H        -2.856028        -3.017131         0.016431
 H        -2.652492        -0.697769        -1.254836
 H         1.275284         1.214358        -0.937149
 H         1.498879         1.311377         0.861867
 H         1.960086        -1.147784        -1.111525
 H         2.478938        -1.386596         0.530142
 H         0.028044        -1.464686         2.150749
 H        -0.684051         0.155555         1.896008
