19
Iteration:  4038
 O        -2.881892        -1.033077         1.594491
 C        -1.748600        -1.344866         0.887758
 C        -1.693022        -2.642403        -0.141237
 C        -1.759275        -1.158903        -0.616950
 O        -0.547527        -0.611198        -1.053664
 C         0.260277        -0.443456         0.077071
 C         1.446800         0.425091        -0.026658
 C         1.733358        -1.060595         0.070229
 C        -0.547433        -0.573045         1.320145
 H        -2.886901        -1.716093         2.252801
 H        -0.797715        -3.311555        -0.303545
 H        -2.611992        -3.256588        -0.008029
 H        -2.651318        -0.586681        -1.049119
 H         1.683257         0.909362        -0.950937
 H         1.759632         1.145824         0.924601
 H         1.931189        -1.553033        -0.876137
 H         1.975880        -1.558351         1.018535
 H         0.175436        -1.153510         1.956010
 H        -0.826994         0.379199         1.835283
