19
Iteration:  4335
 O        -2.931708        -1.289431         1.622863
 C        -1.785294        -1.321768         0.872820
 C        -1.562632        -2.538614         0.015910
 C        -1.756480        -1.125146        -0.637745
 O        -0.579974        -0.469413        -1.057795
 C         0.344491        -0.338892         0.043726
 C         1.705714         0.349282        -0.057467
 C         1.511546        -1.220748         0.081824
 C        -0.667367        -0.405086         1.239226
 H        -2.945952        -2.024612         2.291029
 H        -0.580560        -2.991018        -0.083899
 H        -2.340334        -3.215082        -0.261651
 H        -2.591437        -0.881892        -1.288936
 H         2.029452         0.825102        -0.968201
 H         2.087597         0.915447         0.911824
 H         1.676541        -1.810376        -0.780104
 H         1.818901        -1.734621         0.980202
 H        -0.143566        -0.844556         2.105037
 H        -1.120623         0.528883         1.653127
