19
Iteration:  2063
 O        -3.061709        -0.946828         1.526226
 C        -1.819000        -1.310577         0.906667
 C        -1.557474        -2.601440        -0.061855
 C        -1.762373        -1.221988        -0.578160
 O        -0.543826        -0.618603        -1.003264
 C         0.321543        -0.497700         0.158330
 C         1.469380         0.497874        -0.036263
 C         1.696921        -0.947031        -0.208654
 C        -0.458315        -0.803081         1.430283
 H        -3.183264        -1.519791         2.307460
 H        -0.532248        -2.921347         0.037818
 H        -2.316136        -3.310275        -0.224493
 H        -2.682761        -0.800269        -1.173772
 H         1.476831         1.318126        -0.734099
 H         1.939539         0.705546         0.959137
 H         1.727923        -1.493877        -1.188998
 H         2.344534        -1.539966         0.436727
 H         0.062412        -1.481175         2.077153
 H        -0.657067         0.112075         2.109568
