19
Iteration:  4570charge 0 multiplicity 1
 O        -2.877977        -0.889364         1.561487
 C        -1.802934        -1.287775         0.816076
 C        -1.940578        -2.588449         0.071437
 C        -1.693752        -1.201712        -0.684915
 O        -0.434230        -0.764962        -1.046466
 C         0.361684        -0.555445         0.067674
 C         1.259499         0.599738         0.032325
 C         1.803600        -0.840596        -0.032483
 C        -0.394527        -0.910818         1.359400
 H        -3.129891        -1.642339         2.112655
 H        -1.369216        -3.511158         0.138522
 H        -3.013279        -2.890766         0.074636
 H        -2.490058        -0.742995        -1.337855
 H         1.314518         1.014924        -0.983865
 H         1.314231         1.298352         0.908033
 H         2.084431        -0.932534        -1.088166
 H         2.431090        -1.379679         0.647452
 H         0.157509        -1.737194         1.881537
 H        -0.228357        -0.174820         2.151230
