19
Iteration:  1217charge 0 multiplicity 1
 O        -2.698810        -0.662674         1.508243
 C        -1.704281        -1.360065         0.918487
 C        -2.088053        -2.523050        -0.014641
 C        -1.709512        -1.187209        -0.596139
 O        -0.381436        -1.116374        -1.038447
 C         0.364942        -0.622692         0.030623
 C         0.946334         0.753008         0.131117
 C         1.829120        -0.504432        -0.099460
 C        -0.346258        -1.294989         1.285022
 H        -2.730424        -0.827256         2.440253
 H        -1.265023        -3.216872        -0.151442
 H        -3.036114        -2.842280         0.063400
 H        -2.100883        -0.493426        -1.369668
 H         1.007973         1.477151        -0.739635
 H         0.829840         1.265098         1.170073
 H         2.201742        -0.570540        -1.100477
 H         2.448778        -0.908578         0.718952
 H        -0.100840        -2.356825         1.660852
 H        -0.282896        -0.788633         2.225968
