19
Iteration:  4262
 O        -3.125690        -0.941720         1.484147
 C        -1.882801        -1.332988         0.900601
 C        -1.547213        -2.561958         0.077186
 C        -1.671206        -1.286221        -0.638048
 O        -0.556016        -0.528894        -0.961517
 C         0.403429        -0.482141         0.142940
 C         1.543369         0.470705        -0.075654
 C         1.676548        -0.997249        -0.175648
 C        -0.519125        -0.789372         1.404783
 H        -3.310192        -1.664430         2.147911
 H        -0.640367        -3.188024         0.047390
 H        -2.469862        -3.017283        -0.248128
 H        -2.708936        -1.190136        -1.124327
 H         1.444062         1.077575        -0.868739
 H         1.851085         1.105044         0.784627
 H         2.042301        -1.386176        -1.128321
 H         2.390004        -1.467235         0.624075
 H        -0.022735        -1.600164         1.922787
 H        -0.524904         0.030226         2.146941
