19
Iteration:  4597
 O        -2.906503        -0.642737         1.520875
 C        -1.839931        -1.455006         0.875637
 C        -1.876966        -2.759979        -0.055018
 C        -1.785882        -1.214694        -0.575106
 O        -0.533841        -0.810152        -1.043601
 C         0.375766        -0.567116         0.079193
 C         1.402562         0.687999         0.051348
 C         1.850629        -0.724508        -0.126320
 C        -0.395454        -1.047304         1.394696
 H        -3.499872        -1.264364         1.989514
 H        -1.057252        -3.494855        -0.099959
 H        -2.814164        -3.293205        -0.161903
 H        -2.601320        -0.672905        -0.936159
 H         1.227298         1.426953        -0.699486
 H         1.717991         1.003131         1.026360
 H         2.135519        -1.179083        -1.065557
 H         2.562761        -1.131009         0.680156
 H         0.253828        -1.597356         2.125830
 H        -0.461067        -0.171177         2.066826
