19
Iteration:  3856
 O        -2.934119        -1.068422         1.660012
 C        -1.773421        -1.438389         0.858401
 C        -1.800209        -2.597617        -0.025070
 C        -1.736445        -1.135329        -0.606951
 O        -0.494478        -0.656274        -1.072647
 C         0.292791        -0.406618         0.058858
 C         1.640934         0.532636        -0.092080
 C         1.636442        -0.951094         0.049918
 C        -0.519455        -0.691478         1.331010
 H        -3.217675        -2.013834         1.854708
 H        -0.969465        -3.226374        -0.259831
 H        -2.721671        -3.194374        -0.170446
 H        -2.529260        -0.694651        -1.038937
 H         1.452699         1.009575        -1.091490
 H         2.043124         1.123611         0.734109
 H         2.124220        -1.422573        -0.841370
 H         1.862854        -1.384075         0.970468
 H         0.020940        -1.219817         2.102471
 H        -0.906659         0.283458         1.756647
