19
Iteration:  1463charge 0 multiplicity 1
 O        -2.803376        -0.840954         1.658569
 C        -1.785065        -1.344383         0.844843
 C        -1.970519        -2.514824        -0.038997
 C        -1.780936        -1.146516        -0.627545
 O        -0.481801        -0.919209        -1.094425
 C         0.352651        -0.658233         0.117600
 C         1.218729         0.644967        -0.060217
 C         1.935899        -0.635352        -0.016147
 C        -0.386509        -1.060469         1.375803
 H        -3.511204        -1.442092         1.866573
 H        -1.032657        -3.094932        -0.118069
 H        -2.964865        -3.027752        -0.168083
 H        -2.423530        -0.595673        -1.201682
 H         1.014189         1.158391        -1.005427
 H         1.362015         1.243321         0.822937
 H         2.507948        -0.956850        -0.934717
 H         2.332076        -0.859979         0.967389
 H        -0.069308        -2.087657         1.805150
 H        -0.468590        -0.192056         2.097580
