19
Iteration:  4959charge 0 multiplicity 1
 O        -2.736735        -0.612763         1.626793
 C        -1.834774        -1.346924         0.852101
 C        -2.044373        -2.721106        -0.121687
 C        -1.828102        -1.312369        -0.575423
 O        -0.456204        -1.025569        -1.085660
 C         0.378852        -0.609680         0.075505
 C         1.275417         0.761625         0.203677
 C         1.836498        -0.638609        -0.097997
 C        -0.334397        -1.028719         1.334644
 H        -3.613647        -0.556924         1.191062
 H        -1.147845        -3.292756         0.123530
 H        -2.918978        -3.289056        -0.450445
 H        -2.546537        -0.760306        -1.216000
 H         1.214581         1.426463        -0.585420
 H         1.403180         1.108540         1.213523
 H         2.211692        -0.934291        -1.070995
 H         2.631277        -1.163007         0.602603
 H         0.099677        -1.982952         1.767481
 H        -0.441247        -0.188385         2.022137
