19
Iteration:   187charge 0 multiplicity 1
 O        -2.993816        -0.986612         1.643016
 C        -1.828200        -1.327112         0.823217
 C        -1.798808        -2.650851         0.101741
 C        -1.718849        -1.333447        -0.654196
 O        -0.498979        -0.676069        -1.063005
 C         0.399362        -0.533924         0.128220
 C         1.402725         0.603768         0.009508
 C         1.837634        -0.861654        -0.291771
 C        -0.456908        -0.686001         1.447169
 H        -3.156385        -1.871987         2.036021
 H        -0.911608        -3.362676         0.350200
 H        -2.787679        -3.311368         0.012111
 H        -2.529949        -1.001055        -1.322269
 H         1.278795         1.385520        -0.782715
 H         1.575494         1.213078         0.942445
 H         1.810240        -1.054458        -1.449773
 H         2.481880        -1.466139         0.311238
 H        -0.149143        -1.408152         2.302288
 H        -0.581235         0.361284         1.855043
