19
Iteration:  2730
 O        -2.975301        -0.969439         1.504191
 C        -1.697503        -1.322580         0.945209
 C        -1.645487        -2.546987         0.016387
 C        -1.754271        -1.268026        -0.624540
 O        -0.574046        -0.562868        -1.112271
 C         0.286619        -0.477872         0.049993
 C         1.444430         0.488076         0.075753
 C         1.668084        -1.027672        -0.134233
 C        -0.427290        -0.771763         1.436820
 H        -3.244008        -1.448279         2.300244
 H        -0.697150        -2.982569        -0.162902
 H        -2.509045        -3.142988        -0.218141
 H        -2.913986        -1.027673        -0.954784
 H         1.714523         1.135425        -0.784360
 H         1.574132         0.970099         1.060304
 H         1.897940        -1.443775        -1.099461
 H         2.201907        -1.634546         0.578777
 H         0.066529        -1.476328         2.084909
 H        -0.611129         0.104876         2.034529
