19
Iteration:   406
 O        -2.860837        -1.017000         1.713773
 C        -1.803840        -1.319021         0.891376
 C        -1.744680        -2.517071         0.106313
 C        -1.799977        -1.222955        -0.625637
 O        -0.508308        -0.869487        -1.104010
 C         0.367519        -0.604378        -0.016245
 C         1.313331         0.605247         0.060016
 C         1.888600        -0.841990        -0.190813
 C        -0.535155        -0.670621         1.346535
 H        -3.705058        -1.455807         1.570048
 H        -0.752407        -3.084342        -0.268882
 H        -2.580776        -3.298231         0.274426
 H        -2.636431        -0.940265        -1.236101
 H         1.455609         1.355569        -0.738802
 H         1.301419         1.002003         1.025139
 H         2.155513        -0.969148        -1.269775
 H         2.574528        -1.439839         0.540021
 H        -0.052335        -1.080767         2.225125
 H        -0.891175         0.344550         1.569885
