19
Iteration:  4341charge 0 multiplicity 1
 O        -2.931682        -1.311812         1.638617
 C        -1.770260        -1.266815         0.869287
 C        -1.530855        -2.486138        -0.001831
 C        -1.758863        -1.123683        -0.638480
 O        -0.571236        -0.445970        -1.089151
 C         0.310055        -0.343288         0.105317
 C         1.674650         0.355901        -0.038842
 C         1.556910        -1.253139         0.069528
 C        -0.671647        -0.437304         1.233207
 H        -2.983206        -2.111276         2.206817
 H        -0.546714        -2.949799        -0.171412
 H        -2.383738        -3.214495        -0.068402
 H        -2.627510        -1.055292        -1.289848
 H         1.878853         0.564473        -1.136253
 H         2.038991         0.916697         0.730177
 H         1.710694        -2.009230        -0.755415
 H         1.685020        -1.681152         1.084375
 H        -0.202565        -0.794234         2.180517
 H        -1.057383         0.530551         1.550196
