19
Iteration:  3827
 O        -2.895376        -0.965268         1.675153
 C        -1.823913        -1.347709         0.796799
 C        -1.823184        -2.594464        -0.018099
 C        -1.769317        -1.219786        -0.714414
 O        -0.540421        -0.608530        -1.045381
 C         0.325116        -0.578776         0.076667
 C         1.398181         0.490042        -0.065317
 C         1.889193        -0.927643         0.039396
 C        -0.451166        -0.740640         1.389877
 H        -3.328281        -1.806333         1.874177
 H        -0.854593        -3.129055        -0.040524
 H        -2.712471        -3.253683        -0.206069
 H        -2.615211        -0.747153        -1.381715
 H         1.303009         1.119763        -0.874048
 H         1.321927         1.106485         0.847410
 H         2.282366        -1.069056        -1.004422
 H         2.381880        -1.331872         0.956478
 H         0.035478        -1.467856         2.078375
 H        -0.591621         0.198106         1.917851
