19
Iteration:  1745
 O        -2.916014        -1.171812         1.518872
 C        -1.756610        -1.340480         0.850490
 C        -1.390788        -2.486554         0.065726
 C        -1.716993        -1.183614        -0.615993
 O        -0.631935        -0.473864        -1.071707
 C         0.242419        -0.388015         0.156312
 C         1.574672         0.340128         0.014493
 C         1.448641        -1.210594        -0.179925
 C        -0.596316        -0.473764         1.409269
 H        -2.922812        -1.665281         2.351899
 H        -0.318066        -2.971692         0.017250
 H        -2.094621        -3.391635         0.228261
 H        -2.618547        -0.920604        -1.221815
 H         1.828298         0.963706        -0.906143
 H         2.085921         0.522411         0.945224
 H         1.422729        -1.680439        -1.235915
 H         2.086650        -1.614538         0.587953
 H        -0.094096        -1.064173         2.201426
 H        -1.089078         0.484296         1.768803
