19
Iteration:  3826charge 0 multiplicity 1
 O        -2.897492        -0.965674         1.673070
 C        -1.812044        -1.337137         0.798121
 C        -1.820821        -2.598696        -0.008931
 C        -1.767532        -1.210723        -0.717503
 O        -0.533620        -0.607463        -1.045176
 C         0.324909        -0.591980         0.078146
 C         1.385576         0.482851        -0.056603
 C         1.884311        -0.923419         0.030859
 C        -0.456604        -0.750825         1.385064
 H        -3.329133        -1.781875         1.886602
 H        -0.845844        -3.096251        -0.032081
 H        -2.728033        -3.245866        -0.208032
 H        -2.572024        -0.764772        -1.364630
 H         1.278007         1.129580        -0.877215
 H         1.325095         1.113158         0.841314
 H         2.323362        -1.060222        -1.019556
 H         2.344897        -1.301841         0.930848
 H         0.032675        -1.459066         2.072426
 H        -0.596080         0.206509         1.917041
