19
Iteration:  2670charge 0 multiplicity 1
 O        -3.058659        -1.318795         1.635401
 C        -1.806099        -1.306395         0.871396
 C        -1.583146        -2.489808         0.013732
 C        -1.716240        -1.114142        -0.679874
 O        -0.528610        -0.431551        -0.996374
 C         0.293238        -0.430161         0.132755
 C         1.593884         0.348719        -0.109314
 C         1.594263        -1.195752        -0.074477
 C        -0.514654        -0.456415         1.328751
 H        -2.949349        -1.972339         2.377063
 H        -0.632364        -3.099653         0.205752
 H        -2.476931        -3.110184        -0.095091
 H        -2.553776        -0.838931        -1.259247
 H         1.854540         0.844298        -1.137678
 H         2.072747         0.856112         0.670560
 H         1.830645        -1.661872        -1.094682
 H         2.080887        -1.448805         0.874638
 H         0.003294        -0.954404         2.193067
 H        -0.989099         0.530346         1.547657
