19
Iteration:  1896
 O        -2.946267        -0.960155         1.510126
 C        -1.747835        -1.350942         0.930524
 C        -1.638225        -2.547046         0.049364
 C        -1.677562        -1.148784        -0.673840
 O        -0.517650        -0.558947        -1.096761
 C         0.257014        -0.481278         0.130810
 C         1.348095         0.500966         0.017792
 C         1.681172        -1.012833        -0.152711
 C        -0.457293        -0.876947         1.452681
 H        -2.996973        -1.383454         2.371962
 H        -0.608240        -3.135216         0.001799
 H        -2.606824        -3.170308         0.067805
 H        -2.628454        -0.954496        -1.268654
 H         1.348276         0.920283        -0.953559
 H         1.362370         1.132369         0.970409
 H         1.778030        -1.372408        -1.199436
 H         2.234872        -1.776647         0.473381
 H         0.191390        -1.560562         2.105653
 H        -0.649334         0.026398         2.057681
