19
Iteration:    24charge 0 multiplicity 1
 O        -2.908536        -1.066076         1.758745
 C        -1.840251        -1.410457         0.795901
 C        -1.380356        -2.685726         0.159054
 C        -1.674393        -1.333423        -0.694585
 O        -0.681329        -0.343994        -1.115654
 C         0.248661        -0.281321         0.041620
 C         1.597451         0.400273        -0.083750
 C         1.536011        -1.106723        -0.050089
 C        -0.655510        -0.580644         1.286644
 H        -2.838647        -1.772098         2.435501
 H        -0.335814        -2.987168         0.313110
 H        -2.077870        -3.534030        -0.224365
 H        -2.477160        -1.379529        -1.394580
 H         1.772158         0.834836        -1.082661
 H         2.039185         0.959435         0.744822
 H         1.730777        -1.576589        -0.953937
 H         1.912925        -1.636428         0.922057
 H         0.007500        -1.176675         1.985947
 H        -1.098158         0.230584         1.807361
