19
Iteration:  4434
 O        -3.001160        -1.064330         1.484440
 C        -1.796993        -1.339215         0.859047
 C        -1.505343        -2.572988         0.119493
 C        -1.705836        -1.249416        -0.639732
 O        -0.590287        -0.408607        -1.055626
 C         0.310126        -0.560881         0.084699
 C         1.485541         0.380719         0.098878
 C         1.640473        -1.115422        -0.184949
 C        -0.552285        -0.564792         1.374096
 H        -2.955542        -1.338588         2.406926
 H        -0.479173        -2.902391         0.181900
 H        -2.252299        -3.355912         0.021587
 H        -2.735007        -1.123517        -1.208058
 H         1.503583         0.917518        -0.875041
 H         1.778505         0.741576         1.079025
 H         1.853893        -1.435907        -1.238175
 H         2.192148        -1.727314         0.525851
 H        -0.027123        -0.996553         2.209495
 H        -0.744113         0.467008         1.791755
