19
Iteration:  4923charge 0 multiplicity 1
 O        -2.790341        -0.891182         1.666036
 C        -1.791039        -1.261081         0.868337
 C        -2.022383        -2.475241         0.049204
 C        -1.688607        -1.123852        -0.692941
 O        -0.339166        -0.907489        -1.112633
 C         0.405903        -0.675519         0.109073
 C         1.091056         0.640948        -0.058176
 C         1.815176        -0.729448         0.035213
 C        -0.357314        -1.093524         1.325511
 H        -3.607929        -0.695101         1.211679
 H        -1.264343        -3.292065         0.229146
 H        -3.113972        -2.776150        -0.016776
 H        -2.532275        -0.667607        -1.334501
 H         0.855864         1.056363        -1.082444
 H         1.275941         1.471389         0.658696
 H         2.164097        -1.234190        -0.914367
 H         2.263243        -0.770634         1.134889
 H         0.029333        -1.962777         1.849784
 H        -0.228406        -0.338610         2.078882
