19
Iteration:  3483
 O        -2.717826        -0.726801         1.565408
 C        -1.757895        -1.275796         0.859455
 C        -2.223107        -2.475758        -0.202420
 C        -1.650443        -1.135370        -0.625775
 O        -0.342137        -1.266303        -0.959614
 C         0.393648        -0.624554         0.119445
 C         0.956993         0.800789         0.061096
 C         1.821397        -0.493869        -0.092376
 C        -0.236627        -1.275410         1.374444
 H        -2.739879        -1.076679         2.478120
 H        -1.465587        -3.223025        -0.311552
 H        -3.260058        -2.611777        -0.353322
 H        -2.246941        -0.380149        -1.232376
 H         0.749289         1.444211        -0.733541
 H         0.895817         1.215903         1.048224
 H         2.185374        -0.596668        -1.033562
 H         2.350875        -0.888382         0.798964
 H         0.222250        -2.152559         1.746360
 H        -0.180061        -0.686985         2.272352
