19
Iteration:   120
 O        -2.841564        -1.105471         1.661046
 C        -1.787129        -1.339522         0.791061
 C        -1.448964        -2.562099         0.077073
 C        -1.722040        -1.205867        -0.638296
 O        -0.627395        -0.485150        -1.039720
 C         0.280902        -0.409390         0.072713
 C         1.472245         0.433109        -0.207605
 C         1.609870        -1.078831         0.001448
 C        -0.630011        -0.634595         1.361351
 H        -2.960523        -1.921151         2.218824
 H        -0.590180        -3.068263         0.372308
 H        -2.235440        -3.253493        -0.177637
 H        -2.534257        -1.291101        -1.356399
 H         1.468391         0.901329        -1.217407
 H         1.832966         1.056979         0.625890
 H         1.800385        -1.793447        -0.673454
 H         1.838661        -1.300548         1.104392
 H        -0.056198        -1.168702         2.106718
 H        -1.171969         0.273632         1.860346
