19
Iteration:   260charge 0 multiplicity 1
 O        -2.870879        -0.906657         1.685690
 C        -1.778073        -1.401474         0.891087
 C        -1.925034        -2.666712         0.034182
 C        -1.770022        -1.210224        -0.578161
 O        -0.494523        -0.788055        -1.144141
 C         0.402844        -0.568636         0.004379
 C         1.270041         0.680567        -0.048526
 C         1.856771        -0.795518         0.014780
 C        -0.385680        -0.843014         1.260293
 H        -3.203016        -1.639036         2.274983
 H        -1.066160        -3.270244         0.055220
 H        -2.890323        -3.147002        -0.106396
 H        -2.581217        -0.641993        -1.134485
 H         1.297760         1.257936        -1.010035
 H         1.225519         1.330573         0.864431
 H         2.408793        -1.223275        -0.895194
 H         2.240214        -1.097543         0.943511
 H         0.270220        -1.426505         1.809362
 H        -0.714172         0.037707         1.895132
