19
Iteration:  3037charge 0 multiplicity 1
 O        -2.922272        -1.233604         1.602092
 C        -1.826687        -1.383477         0.852363
 C        -1.420338        -2.543912         0.010487
 C        -1.756104        -1.134350        -0.709048
 O        -0.537788        -0.370948        -0.995363
 C         0.299388        -0.379918         0.171389
 C         1.607774         0.257014        -0.105226
 C         1.489334        -1.185992        -0.029407
 C        -0.607302        -0.411484         1.378739
 H        -2.960922        -2.010542         2.183552
 H        -0.423019        -3.079406         0.054078
 H        -2.349110        -3.223341         0.066666
 H        -2.501412        -0.919846        -1.365979
 H         1.638323         0.840213        -1.165417
 H         2.130490         0.823814         0.607543
 H         1.261429        -1.575989        -1.076254
 H         1.806521        -2.104882         0.448404
 H        -0.314706        -0.779277         2.358988
 H        -1.170367         0.505965         1.654446
