19
Iteration:  1281
 O        -2.693220        -0.671292         1.703593
 C        -1.726337        -1.287540         0.856410
 C        -2.114221        -2.447570        -0.077415
 C        -1.642283        -1.089661        -0.665439
 O        -0.280197        -1.220416        -1.064677
 C         0.382503        -0.728246         0.135734
 C         0.813574         0.706167         0.023831
 C         1.778770        -0.458029        -0.035308
 C        -0.280624        -1.287146         1.295635
 H        -3.509764        -1.202270         1.710585
 H        -1.355258        -3.234103        -0.254577
 H        -3.107503        -2.790679        -0.012713
 H        -2.291401        -0.483058        -1.257966
 H         0.581634         1.332476        -0.897467
 H         0.902198         1.334658         0.967836
 H         2.191151        -0.727523        -1.052215
 H         2.600206        -0.598961         0.717658
 H         0.280083        -2.246691         1.584193
 H        -0.050803        -0.614197         2.176957
