19
Iteration:  3995
 O        -3.121516        -1.271278         1.643488
 C        -1.853111        -1.299261         0.823377
 C        -1.493538        -2.480285         0.076394
 C        -1.765524        -1.128516        -0.628076
 O        -0.523138        -0.442820        -1.007770
 C         0.295829        -0.393126         0.108508
 C         1.646817         0.275911        -0.133460
 C         1.700586        -1.192289        -0.048741
 C        -0.589157        -0.430463         1.323547
 H        -3.200193        -2.087276         2.167395
 H        -0.451719        -2.814443        -0.032869
 H        -2.219789        -3.291059        -0.082081
 H        -2.538725        -1.179096        -1.372583
 H         1.596774         0.826819        -1.077692
 H         2.015092         0.977111         0.750877
 H         1.724397        -1.646999        -1.052965
 H         2.283946        -1.554417         0.764269
 H        -0.164445        -1.146014         2.047706
 H        -0.854966         0.533111         1.762774
