19
Iteration:  1871
 O        -2.960455        -1.018533         1.596340
 C        -1.862735        -1.320908         0.887654
 C        -1.664159        -2.631013         0.040070
 C        -1.783984        -1.238169        -0.649193
 O        -0.662071        -0.482892        -0.995407
 C         0.344921        -0.565452         0.012524
 C         1.542696         0.508126         0.062569
 C         1.804533        -0.990048        -0.094188
 C        -0.497891        -0.696084         1.255740
 H        -2.982652        -1.621681         2.337923
 H        -0.675507        -3.148139         0.018455
 H        -2.497700        -3.237278        -0.338765
 H        -2.685251        -1.066736        -1.198506
 H         1.764625         1.103001        -0.913845
 H         1.684016         0.831633         1.073840
 H         2.276013        -1.624421        -0.962332
 H         2.256797        -1.443065         0.785650
 H        -0.014756        -1.425469         1.978222
 H        -0.589110         0.276326         1.722292
