19
Iteration:  2838charge 0 multiplicity 1
 O        -2.986352        -1.004211         1.686708
 C        -1.782018        -1.263566         0.875299
 C        -1.897292        -2.566498        -0.062285
 C        -1.750978        -1.214246        -0.657837
 O        -0.527992        -0.689680        -1.002250
 C         0.434634        -0.566961         0.002429
 C         1.351797         0.586514        -0.002304
 C         1.864237        -0.952361         0.030092
 C        -0.422655        -0.789463         1.292279
 H        -3.000966        -1.793372         2.294936
 H        -1.062940        -3.211751        -0.308551
 H        -2.738131        -3.054409        -0.439988
 H        -2.645992        -0.752573        -1.312087
 H         1.453327         1.144381        -1.012983
 H         1.458448         1.225004         0.805945
 H         2.241307        -1.270199        -0.954715
 H         2.335255        -1.251876         0.915457
 H         0.244955        -1.485617         1.874695
 H        -0.445303         0.160079         1.761310
