19
Iteration:   311
 O        -2.878344        -0.949629         1.666209
 C        -1.838161        -1.254646         0.888105
 C        -1.820341        -2.594707         0.105866
 C        -1.717453        -1.174862        -0.603493
 O        -0.413051        -0.898528        -1.103994
 C         0.353187        -0.563030         0.127931
 C         1.219279         0.647446        -0.002526
 C         1.797470        -0.765544        -0.227247
 C        -0.414268        -0.878651         1.389291
 H        -3.665538        -1.493350         1.433987
 H        -0.942230        -3.252057         0.030804
 H        -2.757785        -3.107838        -0.103241
 H        -2.378774        -0.868652        -1.416897
 H         1.077092         1.284254        -0.872576
 H         1.552480         1.111814         0.866193
 H         1.991863        -1.033654        -1.227469
 H         2.426253        -1.239871         0.509170
 H         0.079872        -1.539524         2.221065
 H        -0.484375         0.121552         1.737127
