19
Iteration:  4376charge 0 multiplicity 1
 O        -2.953402        -1.265785         1.588312
 C        -1.801308        -1.283185         0.830769
 C        -1.407808        -2.426281        -0.049454
 C        -1.748581        -1.139136        -0.584325
 O        -0.580912        -0.403940        -0.968896
 C         0.317313        -0.411424         0.119550
 C         1.524697         0.274612        -0.189833
 C         1.556531        -1.303858         0.106524
 C        -0.631030        -0.413389         1.305749
 H        -3.009840        -2.178750         1.930503
 H        -0.361419        -2.699295        -0.180588
 H        -2.172326        -3.187506        -0.142938
 H        -2.518316        -1.109409        -1.227148
 H         1.818479         0.587756        -1.174090
 H         1.882188         1.121385         0.504226
 H         1.654394        -2.092663        -0.575111
 H         1.817334        -1.516887         1.107695
 H        -0.133228        -0.949064         2.168955
 H        -0.964377         0.588828         1.514383
