19
Iteration:  2307charge 0 multiplicity 1
 O        -2.912809        -0.914375         1.584670
 C        -1.768306        -1.348463         0.878393
 C        -1.709232        -2.596043        -0.065490
 C        -1.778921        -1.104833        -0.565015
 O        -0.545695        -0.634679        -1.066599
 C         0.318023        -0.611062         0.082997
 C         1.344120         0.489904        -0.029099
 C         1.830822        -0.909857        -0.048050
 C        -0.467095        -0.868551         1.369242
 H        -3.320843        -1.638605         2.116812
 H        -0.716500        -3.011808        -0.163959
 H        -2.578089        -3.219721        -0.160262
 H        -2.675582        -0.552385        -0.879893
 H         1.347869         0.945383        -0.960620
 H         1.435021         1.292752         0.764202
 H         2.126230        -1.296933        -0.971184
 H         2.209718        -1.362503         0.840931
 H         0.007240        -1.611921         1.950806
 H        -0.544091         0.038954         1.996815
