19
Iteration:  1056
 O        -2.855623        -0.803821         1.569521
 C        -1.758660        -1.408364         0.914375
 C        -2.020265        -2.609924        -0.002885
 C        -1.829186        -1.244808        -0.607115
 O        -0.478923        -0.946452        -1.095833
 C         0.323648        -0.478810         0.061165
 C         1.318151         0.767006         0.019086
 C         1.891208        -0.636970        -0.037515
 C        -0.326536        -1.136078         1.308410
 H        -2.849688        -1.111030         2.508602
 H        -1.398568        -3.503732        -0.203860
 H        -3.047028        -2.936689        -0.118612
 H        -2.670338        -0.711223        -1.184524
 H         1.326278         1.521411        -0.822644
 H         1.304940         1.367319         1.011830
 H         2.378066        -0.969967        -0.849595
 H         2.338094        -0.993889         0.881515
 H         0.330290        -1.967796         1.596252
 H        -0.350438        -0.311800         2.031424
