19
Iteration:  3039
 O        -2.944234        -1.223896         1.602679
 C        -1.807177        -1.395506         0.851726
 C        -1.422051        -2.551520         0.027577
 C        -1.753099        -1.138494        -0.700134
 O        -0.533819        -0.358850        -0.985192
 C         0.307347        -0.384316         0.147024
 C         1.596429         0.260563        -0.100254
 C         1.493712        -1.180971        -0.041273
 C        -0.603299        -0.429572         1.367855
 H        -3.067901        -1.941662         2.212247
 H        -0.372363        -3.069533        -0.006011
 H        -2.351575        -3.226129         0.110548
 H        -2.552509        -0.882366        -1.403236
 H         1.597720         0.834476        -1.100657
 H         2.182998         0.822349         0.662953
 H         1.296528        -1.563314        -1.067490
 H         1.881372        -2.139584         0.440660
 H        -0.320530        -0.751979         2.323667
 H        -1.198310         0.497513         1.622467
