19
Iteration:   869charge 0 multiplicity 1
 O        -2.899379        -0.823829         1.543282
 C        -1.789650        -1.476204         0.867558
 C        -2.025061        -2.661774         0.118298
 C        -1.828563        -1.178673        -0.664241
 O        -0.446125        -0.841456        -1.087577
 C         0.482343        -0.666091         0.078236
 C         1.272716         0.718590         0.144100
 C         1.900139        -0.612139        -0.246653
 C        -0.386125        -0.985094         1.388177
 H        -3.507459        -1.484274         1.974724
 H        -1.217461        -3.430889         0.061416
 H        -2.998501        -3.027870         0.175970
 H        -2.646296        -0.644176        -1.134315
 H         1.063980         1.663192        -0.514473
 H         1.736291         1.193008         1.182533
 H         2.263820        -1.003969        -1.214030
 H         2.766579        -1.033492         0.321129
 H         0.198378        -1.778811         1.977915
 H        -0.450760        -0.067434         1.948033
