19
Iteration:  1830
 O        -2.919361        -1.221433         1.593408
 C        -1.750613        -1.290603         0.897481
 C        -1.608661        -2.489200        -0.006726
 C        -1.676476        -1.142536        -0.618914
 O        -0.529008        -0.552563        -0.995211
 C         0.287089        -0.470901         0.074267
 C         1.485180         0.396244        -0.096482
 C         1.553926        -1.122572        -0.034335
 C        -0.515325        -0.505459         1.329160
 H        -2.933478        -2.034099         2.164481
 H        -0.590684        -3.062043        -0.229571
 H        -2.661867        -2.898816        -0.201369
 H        -2.483331        -0.925076        -1.355309
 H         1.541559         1.201517        -0.922645
 H         1.701018         0.866746         0.872883
 H         1.485667        -1.784920        -0.995937
 H         1.881650        -1.622272         0.877274
 H         0.023675        -0.897097         2.274896
 H        -0.902144         0.450502         1.712796
