19
Iteration:  4449
 O        -3.061905        -0.945776         1.533876
 C        -1.823257        -1.258678         0.872086
 C        -1.430091        -2.565373         0.054909
 C        -1.772637        -1.242862        -0.586373
 O        -0.602472        -0.498033        -1.082947
 C         0.275831        -0.493392         0.087232
 C         1.431408         0.372723         0.018511
 C         1.848456        -1.094557        -0.181060
 C        -0.595011        -0.748676         1.422688
 H        -3.080071        -1.461667         2.404746
 H        -0.353565        -2.862316         0.152600
 H        -2.093088        -3.422819        -0.128456
 H        -2.525466        -1.106774        -1.235362
 H         1.640136         1.201967        -0.627804
 H         1.626608         0.841190         0.970688
 H         1.954898        -1.400734        -1.277873
 H         2.417560        -1.788444         0.537523
 H        -0.137255        -1.379605         2.228223
 H        -0.860486         0.267865         1.800413
