19
Iteration:  4986charge 0 multiplicity 1
 O        -2.708269        -0.667143         1.527877
 C        -1.772746        -1.322705         0.823597
 C        -2.033538        -2.612244         0.099005
 C        -1.680665        -1.338873        -0.682435
 O        -0.362189        -0.891399        -1.081226
 C         0.318740        -0.576556         0.122498
 C         1.118612         0.657639         0.218438
 C         1.789778        -0.645832        -0.186706
 C        -0.389552        -1.130533         1.361887
 H        -3.616352        -0.698679         1.145068
 H        -1.436307        -3.479403         0.428366
 H        -3.138578        -2.680343         0.179818
 H        -2.411844        -0.856462        -1.359825
 H         1.263634         1.448688        -0.564602
 H         1.274730         1.009755         1.302515
 H         2.091949        -0.896383        -1.196819
 H         2.567455        -1.238437         0.233149
 H        -0.069491        -2.147370         1.616983
 H        -0.403601        -0.486863         2.294176
