19
Iteration:  2907charge 0 multiplicity 1
 O        -3.050150        -0.971789         1.432764
 C        -1.800254        -1.351783         0.910616
 C        -1.617190        -2.583046         0.069170
 C        -1.765358        -1.197196        -0.517516
 O        -0.611890        -0.500750        -1.034426
 C         0.359624        -0.536837         0.087355
 C         1.448962         0.473253         0.023091
 C         1.790669        -1.036498        -0.207145
 C        -0.410394        -0.781684         1.420843
 H        -3.409692        -1.619159         2.045644
 H        -0.641004        -3.056611        -0.037411
 H        -2.397963        -3.342130        -0.237406
 H        -2.754047        -0.905235        -0.824223
 H         1.481466         1.036248        -0.890055
 H         1.776610         1.041794         0.949861
 H         2.068711        -1.290061        -1.226281
 H         2.365271        -1.429636         0.643655
 H        -0.028170        -1.448961         2.146365
 H        -0.759319         0.155599         1.916545
