19
Iteration:   180charge 0 multiplicity 1
 O        -2.979437        -1.007466         1.624525
 C        -1.777270        -1.285862         0.841107
 C        -1.804474        -2.688236         0.169373
 C        -1.755820        -1.329454        -0.649861
 O        -0.491778        -0.640638        -1.052449
 C         0.371691        -0.544476         0.101345
 C         1.382871         0.566361         0.065610
 C         1.832803        -0.839416        -0.274888
 C        -0.471989        -0.676576         1.325638
 H        -3.236852        -1.943741         1.841948
 H        -0.825373        -3.244035         0.209575
 H        -2.739394        -3.234359         0.271614
 H        -2.591093        -0.924531        -1.194967
 H         1.412707         1.252188        -0.748006
 H         1.724420         0.972041         1.009391
 H         1.835085        -1.106847        -1.359027
 H         2.556795        -1.420472         0.284333
 H         0.058848        -1.240675         2.155614
 H        -0.802504         0.243626         1.738027
