19
Iteration:   198
 O        -2.991609        -0.974209         1.629175
 C        -1.891910        -1.330958         0.908399
 C        -1.741489        -2.610541         0.038338
 C        -1.655722        -1.266367        -0.646040
 O        -0.497100        -0.745448        -1.030045
 C         0.408118        -0.509824         0.140389
 C         1.386941         0.636191        -0.085330
 C         1.783959        -0.834584        -0.270326
 C        -0.487860        -0.784997         1.479560
 H        -3.217691        -1.532615         2.423653
 H        -0.871871        -3.375395         0.199657
 H        -2.772221        -2.997501        -0.386146
 H        -2.442326        -1.231331        -1.407885
 H         1.167100         1.163744        -1.032394
 H         1.701695         1.100819         0.889050
 H         2.000300        -1.157721        -1.386812
 H         2.460605        -1.301181         0.399430
 H         0.020965        -1.523966         2.228194
 H        -0.664910         0.193275         2.011222
