19
Iteration:   960
 O        -2.921655        -0.940252         1.583636
 C        -1.737328        -1.424154         0.915698
 C        -2.097679        -2.536252        -0.009392
 C        -1.713461        -1.210499        -0.575999
 O        -0.370938        -0.904731        -1.136170
 C         0.408533        -0.540882         0.023884
 C         1.207922         0.671682         0.012816
 C         1.862915        -0.643334        -0.077806
 C        -0.342089        -0.976467         1.362680
 H        -2.855917        -1.441496         2.415650
 H        -1.658538        -3.512629        -0.158428
 H        -3.219992        -2.732310        -0.080389
 H        -2.451758        -0.400923        -0.865956
 H         1.147570         1.383100        -0.743480
 H         1.312020         1.170951         0.933997
 H         2.271562        -0.983967        -0.955655
 H         2.469668        -0.864540         0.782519
 H         0.248718        -1.728754         1.966406
 H        -0.453927        -0.052581         2.015322
