19
Iteration:  4822charge 0 multiplicity 1
 O        -2.958249        -0.698367         1.602266
 C        -1.874907        -1.289482         0.907052
 C        -1.884115        -2.585388         0.005964
 C        -1.765753        -1.220611        -0.665494
 O        -0.436884        -0.917285        -1.110935
 C         0.420883        -0.584218         0.068752
 C         1.245095         0.651198         0.009522
 C         1.917743        -0.668580        -0.045233
 C        -0.403631        -1.154607         1.358374
 H        -2.991240        -0.967970         2.552082
 H        -0.991668        -3.166632        -0.031840
 H        -2.814931        -3.069932        -0.155467
 H        -2.471136        -0.956991        -1.368119
 H         1.160333         1.304844        -0.842577
 H         1.434718         1.232237         0.973877
 H         2.299526        -1.010819        -0.954538
 H         2.463186        -1.018075         0.747948
 H        -0.074961        -2.137745         1.482779
 H        -0.369164        -0.727028         2.363803
