19
Iteration:  2031charge 0 multiplicity 1
 O        -3.038977        -1.054486         1.506325
 C        -1.766819        -1.290730         0.834994
 C        -1.850703        -2.606004         0.059699
 C        -1.739706        -1.220269        -0.600421
 O        -0.554447        -0.560364        -0.993072
 C         0.372816        -0.545010         0.101353
 C         1.417574         0.553742        -0.033857
 C         1.900347        -0.898862        -0.170440
 C        -0.375710        -0.801341         1.437930
 H        -3.106506        -1.737924         2.184859
 H        -1.251375        -3.492160         0.211047
 H        -2.879424        -2.831027         0.008400
 H        -2.630253        -0.920190        -1.286697
 H         1.380123         1.212432        -0.933046
 H         1.693545         0.944342         0.974816
 H         2.164445        -1.287239        -1.215839
 H         2.265074        -1.548191         0.634445
 H         0.096382        -1.582842         1.970380
 H        -0.544234         0.197019         1.986915
