19
Iteration:  2617charge 0 multiplicity 1
 O        -2.938521        -1.222481         1.577074
 C        -1.724771        -1.348965         0.890372
 C        -1.448522        -2.542411         0.028411
 C        -1.669976        -1.212492        -0.657406
 O        -0.671952        -0.212802        -1.007026
 C         0.288686        -0.408883         0.086550
 C         1.554672         0.276264        -0.076296
 C         1.514784        -1.285721        -0.001734
 C        -0.557436        -0.463010         1.310049
 H        -2.964048        -1.891987         2.319448
 H        -0.367584        -2.928749        -0.124445
 H        -2.322070        -3.231238        -0.060311
 H        -2.440916        -1.249663        -1.322381
 H         1.764624         0.776580        -1.136830
 H         1.787048         0.923690         0.704249
 H         1.612655        -1.838104        -1.061046
 H         1.602538        -1.806746         0.998297
 H        -0.159444        -0.952724         2.256711
 H        -1.050115         0.408929         1.647689
