19
Iteration:  2524
 O        -2.983751        -1.031036         1.652788
 C        -1.811376        -1.332708         0.845744
 C        -1.716871        -2.608146        -0.063933
 C        -1.735336        -1.217984        -0.651576
 O        -0.589020        -0.542376        -1.042328
 C         0.312135        -0.425265         0.151059
 C         1.575742         0.464272        -0.079958
 C         1.743716        -0.956917        -0.077849
 C        -0.502065        -0.778854         1.426249
 H        -3.242957        -1.854275         2.065624
 H        -0.771509        -3.146622         0.089831
 H        -2.551535        -3.219800        -0.256950
 H        -2.680764        -0.935289        -1.185954
 H         1.699730         0.816483        -1.156362
 H         1.944612         1.160899         0.624556
 H         2.004557        -1.280730        -1.079239
 H         2.162571        -1.338469         0.791124
 H         0.083753        -1.523282         1.970120
 H        -0.693997         0.179127         2.077140
