19
Iteration:  2563
 O        -2.989846        -1.190132         1.487065
 C        -1.733579        -1.264722         0.907846
 C        -1.540977        -2.544301         0.006615
 C        -1.712328        -1.139468        -0.603044
 O        -0.630163        -0.461214        -1.023191
 C         0.286329        -0.544632         0.098456
 C         1.445337         0.344826         0.025018
 C         1.642815        -1.131424        -0.157062
 C        -0.490717        -0.521729         1.414704
 H        -2.889559        -1.727729         2.309465
 H        -0.520644        -3.005271         0.004653
 H        -2.512295        -3.104741         0.034484
 H        -2.601333        -0.821323        -1.033075
 H         1.518755         0.936454        -0.964058
 H         1.880026         0.798038         0.876537
 H         2.021598        -1.272945        -1.261007
 H         2.240436        -1.822567         0.508600
 H        -0.025325        -0.953056         2.345684
 H        -0.775988         0.422974         1.743814
