19
Iteration:  3706
 O        -2.871758        -0.839077         1.712094
 C        -1.799307        -1.316934         0.892099
 C        -1.934807        -2.517216        -0.024810
 C        -1.765956        -1.091562        -0.702581
 O        -0.348151        -1.006354        -1.178013
 C         0.313540        -0.555561         0.053112
 C         1.178686         0.672472         0.057888
 C         1.882735        -0.700201        -0.014929
 C        -0.416803        -1.044773         1.307362
 H        -3.331731        -1.632650         2.147176
 H        -1.011212        -3.128947        -0.000067
 H        -2.822159        -3.213061        -0.000854
 H        -2.404054        -0.514527        -1.211211
 H         1.398811         1.352012        -0.791572
 H         1.425787         1.262414         0.907582
 H         2.292412        -1.093243        -0.979109
 H         2.152034        -1.091737         0.994178
 H         0.100492        -1.945117         1.655371
 H        -0.586943        -0.415844         2.211465
