19
Iteration:  3744
 O        -2.922823        -0.805997         1.525880
 C        -1.786058        -1.420112         0.894350
 C        -1.981137        -2.658030        -0.017298
 C        -1.661941        -1.256025        -0.621922
 O        -0.417197        -0.693734        -1.061629
 C         0.360874        -0.565977         0.058600
 C         1.162385         0.599330         0.043731
 C         1.900194        -0.735778        -0.112407
 C        -0.387916        -1.004131         1.429446
 H        -3.064583        -1.245884         2.368599
 H        -1.243333        -3.478830         0.001195
 H        -3.055971        -2.861957        -0.080349
 H        -2.560746        -0.723196        -1.206765
 H         1.145521         1.196246        -0.855718
 H         1.602987         1.147785         0.936914
 H         2.350631        -0.961275        -1.051647
 H         2.417690        -1.346218         0.686604
 H         0.160315        -1.785498         2.012620
 H        -0.399852        -0.046795         1.962568
