19
Iteration:  4024
 O        -2.936812        -1.180549         1.589210
 C        -1.706996        -1.315112         0.816600
 C        -1.699461        -2.489314        -0.020245
 C        -1.765502        -1.158158        -0.656812
 O        -0.523178        -0.562570        -1.032434
 C         0.313384        -0.478049         0.086387
 C         1.486935         0.443508        -0.059030
 C         1.608944        -1.137634         0.059368
 C        -0.471649        -0.539546         1.373358
 H        -3.023633        -1.838907         2.340174
 H        -0.849878        -3.059916        -0.236210
 H        -2.633114        -3.024966        -0.123492
 H        -2.534111        -1.021099        -1.301703
 H         1.546653         0.847189        -1.087152
 H         1.663070         1.087846         0.723196
 H         1.932132        -1.623382        -0.913279
 H         2.099523        -1.476590         0.954125
 H        -0.014505        -0.989290         2.279313
 H        -0.826838         0.490631         1.562581
