19
Iteration:    87
 O        -3.106329        -1.417027         1.552835
 C        -1.752435        -1.310178         0.966813
 C        -1.440364        -2.510046         0.031678
 C        -1.770977        -1.215486        -0.575566
 O        -0.611264        -0.509942        -0.932011
 C         0.314034        -0.342390         0.096218
 C         1.629002         0.375098        -0.254563
 C         1.627742        -1.171145        -0.103301
 C        -0.545316        -0.275061         1.359260
 H        -3.054754        -1.862651         2.401450
 H        -0.511387        -2.966703        -0.129114
 H        -2.282799        -3.114400         0.174388
 H        -2.612108        -1.154349        -1.246159
 H         1.740077         0.877944        -1.235942
 H         2.116133         1.041078         0.474362
 H         1.602636        -1.771751        -0.920511
 H         1.989654        -1.667651         0.848841
 H         0.051801        -0.490318         2.220090
 H        -1.118444         0.736359         1.535896
