19
Iteration:  4686charge 0 multiplicity 1
 O        -2.775315        -0.809031         1.620680
 C        -1.763345        -1.413325         0.866810
 C        -2.072066        -2.573112        -0.144456
 C        -1.792248        -1.167558        -0.607102
 O        -0.381073        -0.989398        -1.115315
 C         0.351368        -0.525226         0.100050
 C         1.273911         0.682069        -0.017537
 C         1.808802        -0.737002         0.035867
 C        -0.368518        -0.943859         1.394848
 H        -3.356522        -1.364810         2.172329
 H        -1.241569        -3.222843        -0.441050
 H        -2.987172        -3.192012        -0.100517
 H        -2.417310        -0.391084        -0.952271
 H         1.213768         1.213440        -0.919666
 H         1.515529         1.379990         0.705618
 H         2.041575        -1.269271        -0.948569
 H         2.261156        -1.011860         1.018430
 H         0.041381        -1.710970         2.044895
 H        -0.625198        -0.116927         2.090591
