19
Iteration:  2203
 O        -3.018813        -1.216107         1.556482
 C        -1.734778        -1.351782         0.902010
 C        -1.487485        -2.548273         0.087942
 C        -1.698121        -1.167592        -0.621858
 O        -0.649845        -0.349228        -1.108400
 C         0.284339        -0.350047         0.058085
 C         1.681726         0.335626        -0.074586
 C         1.507916        -1.118733        -0.065325
 C        -0.549028        -0.583578         1.366672
 H        -3.131229        -1.921906         2.246060
 H        -0.511412        -3.023800         0.169212
 H        -2.357882        -3.184918         0.086360
 H        -2.783446        -0.897981        -1.056881
 H         1.852046         0.795427        -0.973333
 H         2.132512         0.636545         0.896915
 H         1.685209        -1.768210        -0.884006
 H         1.768275        -1.762957         0.800503
 H         0.108230        -1.201189         2.040217
 H        -0.937632         0.210113         1.962531
