19
Iteration:  4701charge 0 multiplicity 1
 O        -2.763591        -0.852712         1.603720
 C        -1.700954        -1.411877         0.855696
 C        -2.039237        -2.476540        -0.054701
 C        -1.656637        -1.134831        -0.685821
 O        -0.404177        -0.951465        -1.038394
 C         0.307514        -0.547441         0.170202
 C         1.187073         0.646872        -0.081317
 C         1.783644        -0.776095         0.017078
 C        -0.410439        -0.974882         1.405454
 H        -3.293008        -1.630103         1.741912
 H        -1.371984        -3.363310        -0.174992
 H        -3.126433        -2.511229        -0.137844
 H        -2.594094        -0.515696        -1.113943
 H         1.146052         1.052631        -1.185758
 H         1.256852         1.379260         0.808753
 H         2.240491        -1.200551        -0.876114
 H         2.373588        -1.144616         0.853411
 H         0.287944        -1.635718         1.847310
 H        -0.687063        -0.064131         1.977786
