19
Iteration:  1651charge 0 multiplicity 1
 O        -2.932644        -0.989045         1.616137
 C        -1.766673        -1.356385         0.866300
 C        -1.791921        -2.566874        -0.053277
 C        -1.728254        -1.074710        -0.576344
 O        -0.482989        -0.777615        -1.073053
 C         0.375230        -0.481023         0.117724
 C         1.306079         0.574017        -0.021607
 C         1.779009        -0.961329        -0.097557
 C        -0.491313        -0.791107         1.371176
 H        -2.890519        -1.617610         2.351750
 H        -0.771427        -2.934584        -0.268296
 H        -2.494983        -3.384901         0.016440
 H        -2.687436        -0.637437        -1.151326
 H         1.336932         1.070129        -1.027844
 H         1.632614         1.051655         0.877724
 H         2.042876        -1.467386        -1.127308
 H         2.373736        -1.249065         0.741094
 H        -0.022180        -1.429080         2.136831
 H        -0.869417         0.162148         1.784920
