19
Iteration:  3444charge 0 multiplicity 1
 O        -2.686810        -0.653750         1.565850
 C        -1.772378        -1.354551         0.826463
 C        -2.195115        -2.508583         0.084797
 C        -1.626296        -1.185047        -0.604758
 O        -0.351849        -0.967413        -1.122240
 C         0.399789        -0.705806         0.035887
 C         0.958619         0.738542         0.086840
 C         1.915966        -0.482474         0.008379
 C        -0.365491        -1.373187         1.299105
 H        -3.128743        -1.361813         2.059499
 H        -1.408405        -3.311474         0.260116
 H        -3.080524        -2.959900        -0.455581
 H        -2.423837        -0.675726        -1.190913
 H         0.776113         1.380943        -0.842739
 H         0.761505         1.325018         1.039714
 H         2.370213        -0.783927        -1.053940
 H         2.535053        -0.853273         0.845096
 H        -0.006590        -2.419071         1.606541
 H        -0.354489        -0.540016         2.092532
