19
Iteration:   687charge 0 multiplicity 1
 O        -2.906116        -0.907227         1.530349
 C        -1.741283        -1.380603         0.913563
 C        -1.763079        -2.730899         0.076293
 C        -1.769132        -1.346103        -0.599951
 O        -0.584657        -0.543316        -1.031381
 C         0.265172        -0.367267         0.015696
 C         1.413305         0.565409        -0.016910
 C         1.712996        -0.919327        -0.086745
 C        -0.345605        -0.827551         1.324413
 H        -3.085893        -1.648545         2.106892
 H        -0.864307        -3.408107         0.107840
 H        -2.841589        -2.950355        -0.234563
 H        -2.577170        -1.031040        -1.254605
 H         1.655735         1.212850        -0.808919
 H         1.602839         0.998685         1.039753
 H         2.009492        -1.283065        -1.050915
 H         2.129444        -1.353314         0.943565
 H         0.271090        -1.638340         1.761046
 H        -0.531762        -0.194839         2.186503
