19
Iteration:  3195
 O        -2.889178        -0.901765         1.636054
 C        -1.806511        -1.361669         0.882109
 C        -1.884367        -2.498706        -0.025599
 C        -1.763808        -1.187978        -0.673977
 O        -0.425870        -0.815490        -1.073915
 C         0.384565        -0.563114         0.121731
 C         1.266323         0.612152        -0.002725
 C         1.863535        -0.817551        -0.066141
 C        -0.493233        -0.952897         1.339948
 H        -2.900224        -1.616386         2.317923
 H        -0.995804        -3.025780        -0.258189
 H        -2.895790        -2.872272         0.007325
 H        -2.579329        -0.699186        -1.216698
 H         1.307189         1.219770        -0.951837
 H         1.504172         1.255662         0.793245
 H         2.173716        -1.227456        -1.046316
 H         2.449449        -0.953498         0.831165
 H         0.000066        -1.785482         1.837092
 H        -0.631749        -0.176933         2.088007
