19
Iteration:  1575charge 0 multiplicity 1
 O        -2.809704        -0.767673         1.545728
 C        -1.713394        -1.333386         0.915504
 C        -1.794434        -2.616845        -0.032136
 C        -1.827800        -1.274315        -0.727589
 O        -0.520165        -0.743005        -1.063408
 C         0.332566        -0.510059         0.131841
 C         1.191764         0.642796         0.032376
 C         1.821255        -0.885397        -0.114742
 C        -0.393972        -0.977907         1.445058
 H        -3.242434        -1.467508         2.104171
 H        -1.025016        -3.333036         0.064029
 H        -2.662510        -3.134314        -0.158533
 H        -2.797176        -0.830660        -1.147537
 H         1.232481         1.194336        -0.884515
 H         1.488914         1.005550         1.021145
 H         2.137989        -1.077674        -1.116506
 H         2.385983        -1.022512         0.753154
 H        -0.017141        -1.966067         1.809276
 H        -0.423775        -0.320081         2.330735
