19
Iteration:  1441
 O        -2.898013        -0.809505         1.694912
 C        -1.746960        -1.326171         0.859789
 C        -2.059699        -2.575023         0.011362
 C        -1.714393        -1.202139        -0.650274
 O        -0.383092        -0.941576        -1.075282
 C         0.406063        -0.546852         0.088923
 C         1.179521         0.800212         0.027074
 C         1.852966        -0.747664        -0.032521
 C        -0.331573        -1.083562         1.268363
 H        -3.445365        -1.618978         1.882305
 H        -1.328721        -3.449360         0.024295
 H        -3.157455        -2.786144        -0.149160
 H        -2.324504        -0.735310        -1.338341
 H         1.298875         1.280449        -0.958352
 H         1.170291         1.475621         0.867716
 H         2.096799        -0.955162        -1.130024
 H         2.409421        -1.145568         0.793435
 H         0.271162        -2.130354         1.398285
 H        -0.329009        -0.335144         2.130335
