19
Iteration:  4326charge 0 multiplicity 1
 O        -2.978985        -1.224181         1.616283
 C        -1.804244        -1.392917         0.809758
 C        -1.575888        -2.602091        -0.023612
 C        -1.736951        -1.185639        -0.637590
 O        -0.577658        -0.475838        -1.048442
 C         0.264467        -0.330018         0.028531
 C         1.703206         0.300376        -0.043764
 C         1.519072        -1.147526         0.055451
 C        -0.550184        -0.372487         1.347509
 H        -2.769628        -1.876694         2.347708
 H        -0.598570        -3.057006         0.051825
 H        -2.462198        -3.194748        -0.199182
 H        -2.642924        -0.754312        -1.238341
 H         2.139512         0.899505        -0.773720
 H         1.926028         0.748041         1.008692
 H         1.701087        -1.508114        -0.966090
 H         2.004746        -1.708496         0.916335
 H         0.068975        -0.749540         2.131370
 H        -1.114866         0.575998         1.498088
