19
Iteration:  2196charge 0 multiplicity 1
 O        -3.002240        -1.217933         1.576731
 C        -1.770228        -1.342071         0.902682
 C        -1.499009        -2.558426         0.102282
 C        -1.716195        -1.204181        -0.598957
 O        -0.650848        -0.337578        -1.050218
 C         0.268355        -0.275449         0.067429
 C         1.764816         0.292741        -0.072957
 C         1.525066        -1.144017        -0.075475
 C        -0.616272        -0.591937         1.324602
 H        -3.045463        -2.047684         2.068236
 H        -0.498085        -2.965502        -0.164263
 H        -2.263942        -3.360612        -0.169725
 H        -2.576670        -0.936903        -1.053026
 H         1.926545         0.705402        -1.190956
 H         2.251806         0.844315         0.753083
 H         1.602919        -1.836285        -0.982421
 H         1.726344        -1.381491         1.026326
 H         0.024372        -1.178808         1.915550
 H        -0.997910         0.347021         1.879514
