19
Iteration:   216
 O        -3.004208        -0.935313         1.571407
 C        -1.784894        -1.396673         0.863695
 C        -1.760783        -2.634531         0.036043
 C        -1.724555        -1.184691        -0.580958
 O        -0.448344        -0.725992        -1.003652
 C         0.347713        -0.471013         0.151726
 C         1.292851         0.619577        -0.183912
 C         1.792234        -0.845290        -0.119301
 C        -0.434037        -0.914969         1.368529
 H        -2.897684        -1.289937         2.499658
 H        -0.824221        -3.015689         0.007356
 H        -2.564808        -3.295117         0.125170
 H        -2.625795        -0.645047        -0.978733
 H         1.035510         1.120908        -1.147408
 H         1.672959         1.254325         0.619077
 H         1.877357        -1.436331        -0.979200
 H         2.479887        -1.060225         0.725572
 H        -0.030039        -1.714940         1.889410
 H        -0.439533         0.001463         2.022636
