19
Iteration:  3833
 O        -2.890072        -0.980503         1.678993
 C        -1.873659        -1.373058         0.817685
 C        -1.814315        -2.586630        -0.077605
 C        -1.801756        -1.241667        -0.699232
 O        -0.572165        -0.624259        -1.053296
 C         0.355211        -0.496986         0.076266
 C         1.442895         0.529806        -0.060573
 C         1.895468        -0.943667         0.076309
 C        -0.432969        -0.720204         1.384993
 H        -3.343958        -1.799676         1.848133
 H        -0.973485        -3.267014        -0.078602
 H        -2.682417        -3.229270        -0.165935
 H        -2.580678        -0.881381        -1.226131
 H         1.533809         1.096651        -1.090683
 H         1.433366         1.107889         0.852530
 H         2.135100        -1.355595        -0.922298
 H         2.464055        -1.379158         0.863149
 H         0.018875        -1.443601         2.049327
 H        -0.671899         0.230447         1.948571
