19
Iteration:  2317charge 0 multiplicity 1
 O        -2.952444        -0.864523         1.654120
 C        -1.814331        -1.383871         0.888988
 C        -1.711460        -2.530040        -0.189084
 C        -1.790755        -1.132220        -0.593356
 O        -0.548719        -0.697518        -0.997285
 C         0.378479        -0.626616         0.080405
 C         1.313554         0.543820        -0.021536
 C         1.812206        -0.917353        -0.075005
 C        -0.406616        -0.892967         1.364746
 H        -3.351311        -1.558568         2.256384
 H        -0.766982        -3.081057        -0.220713
 H        -2.506385        -3.245133        -0.060400
 H        -2.560185        -0.852346        -1.292158
 H         1.373651         0.969850        -0.984816
 H         1.605511         1.192340         0.918860
 H         2.325096        -1.206531        -0.965337
 H         2.384606        -1.200063         0.825113
 H         0.066584        -1.456605         2.090864
 H        -0.741462         0.112376         1.762964
