19
Iteration:  2013
 O        -2.878730        -0.968825         1.622035
 C        -1.792293        -1.357648         0.883958
 C        -1.865351        -2.600932        -0.019081
 C        -1.748151        -1.225626        -0.651458
 O        -0.545549        -0.599822        -1.048368
 C         0.364244        -0.566256         0.088408
 C         1.344567         0.550361         0.002810
 C         1.820469        -0.917453        -0.046698
 C        -0.438568        -0.818744         1.316483
 H        -3.201783        -1.627642         2.238469
 H        -0.904290        -3.184086        -0.215967
 H        -2.880725        -3.082553        -0.152999
 H        -2.481538        -0.667408        -1.261261
 H         1.304002         1.042971        -0.955773
 H         1.571361         1.091297         1.029550
 H         2.226472        -1.312501        -0.985645
 H         2.634659        -1.164158         0.752368
 H         0.142321        -1.497224         2.001645
 H        -0.655937         0.145320         1.779360
