19
Iteration:   596
 O        -2.954138        -1.210054         1.568140
 C        -1.746979        -1.374999         0.931133
 C        -1.529648        -2.570302        -0.004576
 C        -1.771140        -1.238563        -0.619889
 O        -0.666848        -0.429583        -1.002657
 C         0.279166        -0.343295         0.092530
 C         1.657494         0.422533        -0.191412
 C         1.560590        -1.134168        -0.024310
 C        -0.499480        -0.508586         1.414163
 H        -3.477783        -2.025827         1.718983
 H        -0.670368        -3.223359        -0.012869
 H        -2.329405        -3.206863         0.102366
 H        -2.698155        -0.979031        -1.154990
 H         1.774961         0.879981        -1.272538
 H         2.059767         0.927854         0.698217
 H         1.721133        -1.736733        -0.905138
 H         1.926404        -1.430595         0.921241
 H         0.109349        -1.069406         2.220862
 H        -0.697761         0.483670         1.766877
