19
Iteration:  1951
 O        -2.949019        -1.037269         1.581982
 C        -1.806917        -1.298555         0.882272
 C        -1.917115        -2.572117         0.053453
 C        -1.682390        -1.154796        -0.598150
 O        -0.536102        -0.628873        -1.078809
 C         0.384558        -0.607341         0.054544
 C         1.400315         0.522695        -0.014568
 C         1.892842        -0.842991        -0.094781
 C        -0.486828        -0.859465         1.357557
 H        -3.001980        -1.836155         2.097036
 H        -1.157278        -3.398008         0.155118
 H        -2.971526        -2.852610        -0.232343
 H        -2.596626        -0.823563        -1.058104
 H         1.434816         1.061075        -0.889354
 H         1.662877         1.278489         0.744799
 H         2.367365        -0.932742        -1.013310
 H         2.474366        -1.373089         0.722671
 H         0.007085        -1.400227         2.210462
 H        -0.685015         0.094035         1.826421
