19
Iteration:  3920
 O        -3.059249        -1.180166         1.564446
 C        -1.834174        -1.328098         0.874910
 C        -1.350310        -2.609340         0.065272
 C        -1.703096        -1.203730        -0.590227
 O        -0.648600        -0.355025        -1.038172
 C         0.251414        -0.336684         0.054948
 C         1.613398         0.305784        -0.014839
 C         1.614301        -1.239383        -0.096759
 C        -0.588537        -0.515593         1.338411
 H        -3.131464        -1.288796         2.531457
 H        -0.367206        -3.016036        -0.049234
 H        -2.226894        -3.215499        -0.210568
 H        -2.494378        -1.201685        -1.226532
 H         1.749290         0.891834        -0.972339
 H         2.159755         0.850153         0.805829
 H         1.780243        -1.577886        -1.143366
 H         2.046276        -1.785940         0.678882
 H         0.007393        -0.955148         2.122047
 H        -1.057527         0.401672         1.763134
