19
Iteration:  2814
 O        -2.887507        -1.003017         1.549221
 C        -1.658268        -1.382100         0.897047
 C        -1.821079        -2.470187         0.009410
 C        -1.835239        -1.059204        -0.643927
 O        -0.506890        -0.744690        -1.124336
 C         0.316804        -0.541508         0.046687
 C         1.367797         0.526666        -0.002684
 C         1.762012        -0.895744        -0.014527
 C        -0.459014        -0.863645         1.438218
 H        -3.240706        -1.800669         2.017678
 H        -0.953973        -3.182684        -0.063438
 H        -2.722018        -3.114613         0.165899
 H        -2.676475        -0.621264        -1.178468
 H         1.553239         1.035417        -1.000761
 H         1.568165         1.175487         0.844611
 H         2.070115        -1.309417        -1.018005
 H         2.299170        -1.184356         0.955122
 H         0.205500        -1.514209         2.134708
 H        -0.680965         0.116695         1.877521
