19
Iteration:   346
 O        -2.859561        -0.849258         1.586409
 C        -1.798091        -1.377126         0.843976
 C        -1.858121        -2.743519         0.014120
 C        -1.771835        -1.301894        -0.520730
 O        -0.598803        -0.682527        -1.007629
 C         0.330399        -0.485453         0.094286
 C         1.306024         0.630688        -0.187770
 C         1.868671        -0.747225         0.000967
 C        -0.298395        -0.956592         1.394080
 H        -3.762751        -1.229558         1.451377
 H        -1.018787        -3.238424        -0.085886
 H        -2.816902        -3.140909        -0.059345
 H        -2.616427        -0.931671        -1.178639
 H         1.163943         0.924657        -1.232694
 H         1.654738         1.492388         0.483338
 H         2.282871        -1.352660        -0.884597
 H         2.323548        -0.959244         0.882182
 H         0.383697        -1.732442         1.857767
 H        -0.415283        -0.139165         2.146407
