19
Iteration:    93
 O        -3.099027        -1.376539         1.605379
 C        -1.757646        -1.337113         0.950205
 C        -1.467280        -2.531441         0.065177
 C        -1.759077        -1.252734        -0.646750
 O        -0.565138        -0.433141        -0.945400
 C         0.339353        -0.338911         0.107184
 C         1.581679         0.353935        -0.257831
 C         1.619996        -1.155789        -0.045810
 C        -0.560796        -0.308487         1.340812
 H        -3.115037        -1.941495         2.431091
 H        -0.523338        -3.101386        -0.209501
 H        -2.423057        -3.169837         0.208763
 H        -2.545135        -1.146528        -1.419237
 H         1.507688         0.724388        -1.275948
 H         2.051522         1.137131         0.334519
 H         1.706442        -1.727541        -1.089359
 H         2.097132        -1.521860         0.824803
 H         0.106000        -0.659919         2.186887
 H        -1.009504         0.618627         1.599738
