19
Iteration:  4396charge 0 multiplicity 1
 O        -3.009170        -1.229851         1.545485
 C        -1.744671        -1.383354         0.905418
 C        -1.531692        -2.598503         0.036200
 C        -1.697201        -1.174721        -0.695194
 O        -0.614146        -0.376724        -1.107977
 C         0.253866        -0.369507         0.166214
 C         1.711522         0.271151        -0.094650
 C         1.518141        -1.159779         0.007529
 C        -0.613985        -0.401165         1.421741
 H        -3.063645        -1.924253         2.271728
 H        -0.494758        -2.996702         0.028243
 H        -2.324201        -3.349091        -0.091311
 H        -2.561758        -0.841693        -1.112962
 H         1.882099         0.650173        -1.134771
 H         2.238164         0.926521         0.611469
 H         1.728659        -1.644078        -0.965301
 H         1.974728        -1.564296         0.914457
 H         0.074763        -0.891927         2.179703
 H        -1.055175         0.546444         1.630259
