19
Iteration:  2003charge 0 multiplicity 1
 O        -2.851329        -0.912936         1.690655
 C        -1.789140        -1.431261         0.829180
 C        -1.786106        -2.581055        -0.074469
 C        -1.792397        -1.107965        -0.621292
 O        -0.489448        -0.684539        -1.089324
 C         0.350307        -0.548529         0.082478
 C         1.334469         0.573158        -0.001546
 C         1.833840        -0.914950        -0.040358
 C        -0.501198        -0.850451         1.331525
 H        -3.168991        -1.630807         2.232779
 H        -0.882696        -3.280613        -0.091181
 H        -2.713903        -3.228293        -0.160412
 H        -2.712627        -0.819721        -1.145364
 H         1.334503         1.142289        -0.911851
 H         1.588290         1.309940         0.876586
 H         2.117862        -1.210596        -1.030776
 H         2.038236        -1.537038         0.908896
 H         0.050704        -1.488761         2.100973
 H        -0.803538         0.048562         1.832058
