19
Iteration:  2878charge 0 multiplicity 1
 O        -2.950597        -0.982912         1.527373
 C        -1.765920        -1.319245         0.834551
 C        -1.767083        -2.580527         0.005299
 C        -1.752880        -1.223999        -0.639483
 O        -0.497881        -0.643902        -1.049699
 C         0.333824        -0.489668         0.163469
 C         1.375582         0.560604         0.039795
 C         1.687325        -0.991701        -0.131477
 C        -0.379684        -0.786797         1.408263
 H        -2.936799        -1.513963         2.332190
 H        -0.797007        -3.151923        -0.051063
 H        -2.789509        -3.018262        -0.204442
 H        -2.566377        -0.834870        -1.202774
 H         1.475252         1.154440        -0.931809
 H         1.672803         1.024901         0.942197
 H         1.833263        -1.412037        -1.187846
 H         2.406652        -1.375583         0.635798
 H        -0.003863        -1.535005         2.130143
 H        -0.706822         0.078822         2.028015
