19
Iteration:  2087charge 0 multiplicity 1
 O        -2.897417        -0.988187         1.544991
 C        -1.735399        -1.350184         0.828869
 C        -1.558061        -2.618985         0.021237
 C        -1.722823        -1.253878        -0.641969
 O        -0.581579        -0.362627        -0.994097
 C         0.277538        -0.535975         0.127078
 C         1.368745         0.400870         0.018086
 C         1.631628        -1.084798        -0.118007
 C        -0.511371        -0.716856         1.356529
 H        -2.890179        -1.594038         2.333771
 H        -0.538166        -3.077738        -0.015009
 H        -2.473656        -3.241792        -0.120208
 H        -2.666445        -1.058185        -1.272753
 H         1.370722         0.912089        -0.956786
 H         1.660490         1.084908         0.957756
 H         2.008507        -1.336870        -1.113643
 H         2.252592        -1.816968         0.561049
 H        -0.024033        -1.219214         2.184912
 H        -0.855338         0.297367         1.824798
