19
Iteration:  4693charge 0 multiplicity 1
 O        -2.758807        -0.817264         1.613117
 C        -1.707639        -1.436052         0.877172
 C        -2.065344        -2.527573        -0.089233
 C        -1.733982        -1.153666        -0.670535
 O        -0.393655        -0.982000        -1.106508
 C         0.356097        -0.489695         0.147920
 C         1.234852         0.653105        -0.046353
 C         1.773848        -0.749313         0.021225
 C        -0.405293        -0.961126         1.396791
 H        -3.301836        -1.530349         1.951707
 H        -1.310658        -3.228667        -0.364674
 H        -3.073888        -2.924146        -0.173775
 H        -2.418306        -0.380212        -0.944191
 H         1.146595         0.996914        -1.061333
 H         1.377337         1.341388         0.857545
 H         2.044593        -1.228294        -0.841908
 H         2.221499        -1.045486         0.944345
 H         0.192524        -1.687554         2.133841
 H        -0.668929        -0.149855         2.047112
