19
Iteration:  1507charge 0 multiplicity 1
 O        -2.871884        -0.913495         1.613856
 C        -1.818226        -1.338605         0.822313
 C        -1.981939        -2.503874        -0.002271
 C        -1.758078        -1.166464        -0.635466
 O        -0.403870        -0.977205        -1.015416
 C         0.350542        -0.540186         0.102448
 C         1.322672         0.778468         0.022087
 C         1.829902        -0.743497        -0.137462
 C        -0.401985        -0.991021         1.356960
 H        -3.090352        -1.689239         2.138746
 H        -1.240169        -3.277660        -0.067863
 H        -3.087231        -2.750208        -0.043587
 H        -2.505222        -0.738316        -1.194178
 H         1.393327         1.231098        -0.938769
 H         1.491671         1.144763         1.019214
 H         2.099038        -1.094091        -1.132406
 H         2.463604        -1.123708         0.691868
 H         0.113994        -1.828568         1.813714
 H        -0.549281        -0.155260         2.095698
