19
Iteration:  2425charge 0 multiplicity 1
 O        -2.890038        -0.861492         1.578172
 C        -1.790460        -1.294970         0.836673
 C        -1.812088        -2.631503        -0.027084
 C        -1.703831        -1.240047        -0.680209
 O        -0.454534        -0.671110        -1.022501
 C         0.341653        -0.495037         0.114448
 C         1.245662         0.615373         0.029547
 C         1.750080        -0.946602        -0.103834
 C        -0.408868        -0.980801         1.386773
 H        -3.009381        -1.529636         2.292322
 H        -1.220137        -3.509981         0.129644
 H        -2.930054        -2.590765        -0.030444
 H        -2.423091        -0.844018        -1.265649
 H         1.332982         1.186871        -0.886876
 H         1.642868         1.107413         0.961154
 H         1.826414        -1.149479        -1.172725
 H         2.567524        -1.039919         0.582553
 H         0.055251        -1.801990         1.898230
 H        -0.605105        -0.212334         2.222948
