19
Iteration:  3933charge 0 multiplicity 1
 O        -3.015735        -1.165552         1.476169
 C        -1.721415        -1.324879         0.913001
 C        -1.398241        -2.613963         0.046768
 C        -1.643152        -1.316161        -0.617225
 O        -0.663963        -0.321937        -1.019132
 C         0.270486        -0.335436         0.108773
 C         1.655467         0.282680        -0.017554
 C         1.401966        -1.143748        -0.142693
 C        -0.574893        -0.479246         1.383994
 H        -2.723568        -1.405293         2.367258
 H        -0.461215        -3.189821         0.237311
 H        -2.228409        -3.347279        -0.075375
 H        -2.596802        -1.198071        -1.253662
 H         1.858897         0.769772        -0.920565
 H         1.935164         0.798991         0.973162
 H         1.594546        -1.709337        -1.041668
 H         1.585700        -1.819973         0.703596
 H        -0.023050        -1.067456         2.125600
 H        -0.770357         0.558123         1.766155
