19
Iteration:  4042charge 0 multiplicity 1
 O        -2.886500        -0.990455         1.606637
 C        -1.737659        -1.366063         0.850343
 C        -1.706667        -2.641068        -0.157034
 C        -1.744232        -1.176997        -0.598231
 O        -0.568868        -0.625598        -1.075389
 C         0.240210        -0.437429         0.053023
 C         1.466011         0.457094         0.007954
 C         1.774965        -1.051571         0.053289
 C        -0.577819        -0.618554         1.359116
 H        -2.888992        -1.693431         2.320032
 H        -0.799854        -3.271464        -0.256174
 H        -2.548089        -3.333607        -0.036939
 H        -2.707105        -0.608148        -0.892967
 H         1.798981         0.939677        -0.947439
 H         1.786896         1.109572         0.830480
 H         1.964259        -1.588229        -0.857974
 H         1.991547        -1.487978         1.039618
 H         0.082078        -1.173752         1.997506
 H        -0.787886         0.391856         1.777996
