19
Iteration:  2322charge 0 multiplicity 1
 O        -2.962900        -0.851880         1.682956
 C        -1.834154        -1.395701         0.895697
 C        -1.748881        -2.521920        -0.203597
 C        -1.803487        -1.168686        -0.631271
 O        -0.529142        -0.723135        -0.975675
 C         0.409595        -0.602145         0.086524
 C         1.307678         0.579614        -0.009235
 C         1.817708        -0.921405        -0.075353
 C        -0.401918        -0.885198         1.362902
 H        -3.217085        -1.556514         2.277457
 H        -0.783922        -3.024306        -0.266667
 H        -2.613838        -3.208095        -0.224682
 H        -2.564123        -0.975795        -1.516542
 H         1.278145         1.132267        -1.006979
 H         1.653621         0.968622         0.864590
 H         2.392200        -1.208937        -0.993650
 H         2.468238        -1.232542         0.740427
 H         0.156039        -1.379669         2.273589
 H        -0.673421         0.081511         1.733871
