19
Iteration:  2347charge 0 multiplicity 1
 O        -2.894774        -0.976098         1.612705
 C        -1.807914        -1.321033         0.803812
 C        -1.940211        -2.569523        -0.022073
 C        -1.680565        -1.160080        -0.622939
 O        -0.432927        -0.751193        -1.094839
 C         0.377991        -0.525504         0.138009
 C         1.384025         0.568841         0.059390
 C         1.784534        -0.825841        -0.125532
 C        -0.525727        -0.858251         1.349988
 H        -2.766878        -1.567236         2.358891
 H        -1.216578        -3.423402         0.111950
 H        -2.991951        -2.919742         0.164630
 H        -2.442770        -0.756628        -1.112578
 H         1.393337         1.071373        -0.939069
 H         1.657078         1.072456         1.044810
 H         2.013873        -1.143882        -1.195244
 H         2.579514        -1.323106         0.551476
 H        -0.098668        -1.651916         1.992462
 H        -0.799821        -0.014081         2.063893
