19
Iteration:  1979
 O        -2.844134        -0.953943         1.736819
 C        -1.784336        -1.279899         0.862625
 C        -1.780213        -2.507789        -0.120396
 C        -1.784119        -1.187272        -0.686212
 O        -0.489614        -0.819368        -1.104695
 C         0.271863        -0.498223         0.064021
 C         1.362674         0.584132         0.012602
 C         1.684988        -0.954778         0.030300
 C        -0.427066        -0.818269         1.332280
 H        -3.142011        -1.733117         2.239257
 H        -0.809438        -3.056786        -0.365819
 H        -2.543450        -3.279095        -0.284370
 H        -2.595790        -0.661995        -1.322328
 H         1.547408         1.348102        -0.823014
 H         1.636104         1.153588         1.025949
 H         1.986395        -1.158811        -1.072164
 H         2.211861        -1.269425         0.984113
 H         0.190052        -1.629399         1.764937
 H        -0.481971         0.012246         2.099067
