19
Iteration:  2491charge 0 multiplicity 1
 O        -2.911425        -0.984450         1.656380
 C        -1.754924        -1.298302         0.826104
 C        -1.792777        -2.610793        -0.034423
 C        -1.704226        -1.101149        -0.645400
 O        -0.458971        -0.655034        -1.090766
 C         0.319503        -0.584904         0.124155
 C         1.291705         0.553699         0.035445
 C         1.722575        -0.972002        -0.093429
 C        -0.459599        -0.813084         1.343154
 H        -2.956285        -1.811827         2.148575
 H        -0.933734        -3.285833         0.015308
 H        -2.774910        -3.021291        -0.074290
 H        -2.639263        -0.764631        -1.037679
 H         1.268465         1.023941        -1.023120
 H         1.679528         1.126014         0.814645
 H         2.267858        -1.303664        -0.982995
 H         2.248255        -1.201560         0.781162
 H         0.051981        -1.418293         2.077610
 H        -0.566004         0.217599         1.862558
