19
Iteration:  3944
 O        -2.928848        -1.166392         1.437114
 C        -1.706550        -1.360935         0.810841
 C        -1.430891        -2.615931         0.118480
 C        -1.605722        -1.275547        -0.658278
 O        -0.675891        -0.314058        -0.980993
 C         0.205059        -0.305069         0.082718
 C         1.577628         0.341832        -0.032597
 C         1.370499        -1.265918        -0.090193
 C        -0.490758        -0.472488         1.408385
 H        -3.068095        -1.516102         2.366346
 H        -0.382588        -2.960177         0.268602
 H        -2.297930        -3.298700         0.149145
 H        -2.621282        -1.218758        -1.220321
 H         1.984137         0.910456        -0.803549
 H         2.129225         0.575935         0.949064
 H         1.298094        -1.578226        -1.122714
 H         1.755456        -1.925470         0.719072
 H         0.093758        -0.861993         2.249542
 H        -1.064241         0.428621         1.766657
