19
Iteration:  2124
 O        -3.030064        -1.280445         1.641740
 C        -1.804837        -1.258552         0.899752
 C        -1.566313        -2.530597        -0.037011
 C        -1.800690        -1.278694        -0.655573
 O        -0.637953        -0.448331        -1.081521
 C         0.301344        -0.337300         0.024979
 C         1.712640         0.343595         0.003909
 C         1.628000        -1.130368        -0.012348
 C        -0.510044        -0.461155         1.359010
 H        -2.918018        -1.847316         2.445865
 H        -0.663739        -3.053444        -0.324552
 H        -2.417222        -3.206533        -0.025054
 H        -2.639263        -0.986672        -1.195053
 H         1.999312         0.829472        -0.960191
 H         1.984025         0.835091         0.850202
 H         1.825864        -1.310042        -1.068181
 H         1.868720        -1.747977         0.766289
 H         0.122275        -1.060906         2.103240
 H        -0.817574         0.459108         1.751798
