19
Iteration:  1542
 O        -2.947673        -0.861440         1.564734
 C        -1.850288        -1.378699         0.864893
 C        -1.915438        -2.567703         0.009437
 C        -1.750245        -1.196592        -0.581285
 O        -0.459422        -0.833952        -1.017104
 C         0.424075        -0.589353         0.029370
 C         1.252793         0.635664         0.045201
 C         1.909732        -0.739754        -0.172498
 C        -0.382359        -0.992658         1.356504
 H        -2.999387        -1.194606         2.466215
 H        -1.183380        -3.316400         0.083632
 H        -2.892506        -2.863129        -0.189189
 H        -2.624354        -0.836258        -1.151374
 H         1.390089         1.380648        -0.704285
 H         1.332225         1.314019         0.920351
 H         2.302989        -0.890215        -1.142176
 H         2.561908        -1.145021         0.606098
 H         0.043048        -1.844525         1.980423
 H        -0.488829        -0.126098         2.045039
