19
Iteration:  1513charge 0 multiplicity 1
 O        -2.909614        -0.921510         1.620961
 C        -1.799011        -1.295867         0.813604
 C        -1.993376        -2.530670        -0.008276
 C        -1.802610        -1.188147        -0.627168
 O        -0.402745        -0.985261        -1.053032
 C         0.401485        -0.496215         0.126076
 C         1.339876         0.744327         0.021729
 C         1.835502        -0.720805        -0.121486
 C        -0.377474        -1.012166         1.357124
 H        -3.166199        -1.608362         2.288362
 H        -1.226570        -3.366347        -0.089753
 H        -3.046267        -2.796989         0.027259
 H        -2.651969        -0.738230        -1.276878
 H         1.434469         1.498349        -0.828525
 H         1.627702         1.259817         0.955859
 H         2.038873        -1.115062        -1.159827
 H         2.456399        -1.151696         0.632614
 H         0.001821        -1.902611         1.920991
 H        -0.530731        -0.172117         2.003484
