19
Iteration:   575charge 0 multiplicity 1
 O        -2.851947        -1.171539         1.691573
 C        -1.703766        -1.348886         0.822379
 C        -1.388870        -2.560725        -0.029613
 C        -1.691505        -1.183481        -0.573637
 O        -0.676303        -0.330997        -1.041912
 C         0.179554        -0.381506         0.063512
 C         1.473415         0.304411        -0.168421
 C         1.571243        -1.250078         0.082325
 C        -0.585278        -0.489544         1.359202
 H        -3.612012        -1.725400         1.391841
 H        -0.364558        -2.877428        -0.084713
 H        -2.005968        -3.356000        -0.205794
 H        -2.662151        -1.134456        -1.071324
 H         1.525580         0.533266        -1.327429
 H         1.887407         1.077454         0.504432
 H         1.752468        -1.803479        -0.837035
 H         1.942775        -1.674183         0.983847
 H         0.050584        -0.970201         2.161949
 H        -1.133469         0.309359         1.730245
