19
Iteration:   352charge 0 multiplicity 1
 O        -2.831661        -0.856187         1.619088
 C        -1.790531        -1.387135         0.840139
 C        -1.841477        -2.699457         0.031738
 C        -1.726025        -1.285052        -0.584683
 O        -0.595426        -0.682188        -1.003041
 C         0.305207        -0.499832         0.078380
 C         1.357204         0.635266        -0.171308
 C         1.789009        -0.720453        -0.005028
 C        -0.327731        -0.966427         1.372405
 H        -3.697073        -1.223796         1.493524
 H        -1.004173        -3.570530         0.092570
 H        -2.896297        -3.122001        -0.079339
 H        -2.643191        -1.062722        -1.074420
 H         1.218249         0.847645        -1.233608
 H         1.711666         1.487260         0.331870
 H         2.202454        -1.274891        -0.797835
 H         2.227315        -0.972038         1.035069
 H         0.248499        -1.796199         1.829436
 H        -0.530414        -0.206649         2.112052
