19
Iteration:   999charge 0 multiplicity 1
 O        -2.893358        -0.744585         1.656956
 C        -1.821538        -1.238582         0.864736
 C        -1.834712        -2.625086        -0.066749
 C        -1.739550        -1.230719        -0.671920
 O        -0.374130        -0.925419        -1.023204
 C         0.335678        -0.634092         0.164547
 C         1.139842         0.641718         0.096788
 C         1.815831        -0.674108        -0.244724
 C        -0.364187        -1.047876         1.372109
 H        -3.432328        -1.478187         2.024681
 H        -0.881763        -3.089727        -0.071146
 H        -2.729179        -3.245697        -0.207365
 H        -2.527408        -0.698647        -1.116507
 H         0.979354         1.511152        -0.723444
 H         1.387403         1.132556         1.138536
 H         2.012905        -0.838863        -1.396573
 H         2.595705        -1.056392         0.408435
 H        -0.028593        -2.015674         1.737179
 H        -0.280606        -0.387595         2.192823
