19
Iteration:  1475
 O        -2.817623        -0.807768         1.674169
 C        -1.763441        -1.333401         0.890407
 C        -1.906269        -2.527973        -0.101009
 C        -1.782742        -1.103256        -0.660366
 O        -0.494270        -0.915357        -1.111489
 C         0.469113        -0.699144         0.091487
 C         1.136745         0.698113        -0.030331
 C         1.881689        -0.717633        -0.010662
 C        -0.424181        -1.077921         1.411625
 H        -3.324698        -1.646791         1.746739
 H        -1.209866        -3.294591        -0.329082
 H        -2.948729        -2.964898        -0.123743
 H        -2.637704        -0.746678        -1.133863
 H         1.048046         1.216340        -1.002306
 H         1.329764         1.439683         0.796794
 H         2.303955        -1.303266        -0.846177
 H         2.576014        -0.790622         0.841933
 H         0.247794        -1.675799         2.194873
 H        -0.532158        -0.123616         2.059648
