19
Iteration:  1489
 O        -2.842921        -0.860090         1.663069
 C        -1.755473        -1.360841         0.869718
 C        -1.989123        -2.545078        -0.100387
 C        -1.733838        -1.153440        -0.611584
 O        -0.368369        -0.889693        -1.078904
 C         0.361283        -0.594192         0.122047
 C         1.116188         0.598008        -0.033209
 C         1.855439        -0.746621        -0.060931
 C        -0.334982        -0.937767         1.381685
 H        -3.442231        -1.517185         2.020594
 H        -1.166171        -3.212611        -0.213937
 H        -2.949973        -2.953729        -0.178247
 H        -2.507315        -0.473982        -1.148318
 H         0.980407         1.141560        -0.990666
 H         1.243636         1.314850         0.871948
 H         2.199678        -1.009335        -1.020902
 H         2.391803        -1.130984         0.820710
 H         0.078857        -1.849105         1.985212
 H        -0.483796        -0.030187         2.001138
