19
Iteration:  1822charge 0 multiplicity 1
 O        -2.912995        -1.248916         1.567051
 C        -1.703081        -1.248743         0.865263
 C        -1.529204        -2.422424        -0.035143
 C        -1.736683        -1.113498        -0.637957
 O        -0.538650        -0.535969        -0.968615
 C         0.266849        -0.400094         0.124688
 C         1.420277         0.380491        -0.151087
 C         1.530974        -1.213572         0.001449
 C        -0.496094        -0.508420         1.379590
 H        -2.898969        -2.081364         2.116808
 H        -0.609028        -3.123050        -0.064919
 H        -2.448354        -3.064482         0.064125
 H        -2.587374        -1.008579        -1.430266
 H         1.541618         0.855097        -1.103274
 H         1.758882         0.743948         0.854555
 H         1.691730        -1.763253        -0.937829
 H         2.056694        -1.745641         0.791911
 H        -0.062398        -0.995365         2.252781
 H        -1.065611         0.473044         1.621804
