19
Iteration:  3439
 O        -2.709700        -0.624512         1.562863
 C        -1.738371        -1.341159         0.849984
 C        -2.173307        -2.562557         0.101102
 C        -1.683658        -1.204160        -0.623556
 O        -0.336497        -0.951623        -1.126095
 C         0.405105        -0.700516         0.016519
 C         0.942170         0.735181         0.129960
 C         1.917056        -0.500334        -0.039501
 C        -0.346152        -1.345860         1.314016
 H        -3.139239        -1.452199         1.878126
 H        -1.523858        -3.406449         0.123037
 H        -3.044167        -2.765713        -0.476700
 H        -2.475979        -0.776007        -1.246915
 H         0.934326         1.300218        -0.762066
 H         0.873436         1.350811         1.000035
 H         2.363372        -0.707277        -0.934071
 H         2.329897        -0.828480         0.925521
 H        -0.030472        -2.325801         1.620172
 H        -0.219706        -0.727549         2.201046
