19
Iteration:  1828charge 0 multiplicity 1
 O        -2.914996        -1.229374         1.584918
 C        -1.744159        -1.279640         0.897729
 C        -1.587271        -2.474775        -0.014821
 C        -1.687174        -1.132738        -0.628124
 O        -0.529844        -0.553998        -0.977153
 C         0.279541        -0.458265         0.075706
 C         1.469110         0.393900        -0.111867
 C         1.543886        -1.138466        -0.023534
 C        -0.501978        -0.504975         1.335107
 H        -2.909148        -2.029586         2.129631
 H        -0.644149        -3.023528        -0.196959
 H        -2.607333        -2.872772        -0.143131
 H        -2.433188        -0.977451        -1.334952
 H         1.525238         1.171637        -0.967073
 H         1.675027         0.788601         0.853477
 H         1.503290        -1.784213        -0.960362
 H         1.905115        -1.680290         0.862103
 H        -0.022552        -0.899546         2.283720
 H        -0.948535         0.392116         1.689064
