19
Iteration:    58charge 0 multiplicity 1
 O        -2.946573        -1.295967         1.523455
 C        -1.650400        -1.340469         0.933841
 C        -1.325501        -2.517096         0.197772
 C        -1.770792        -1.194729        -0.580572
 O        -0.648121        -0.415647        -1.104632
 C         0.203406        -0.375237         0.061287
 C         1.522561         0.327971        -0.066512
 C         1.529626        -1.235158        -0.113054
 C        -0.614877        -0.339919         1.308979
 H        -2.957165        -1.908440         2.306870
 H        -0.303820        -2.845270        -0.098906
 H        -2.095951        -3.399914         0.417039
 H        -2.748881        -1.024926        -1.030679
 H         1.621400         0.821625        -1.055312
 H         1.917728         0.878306         0.802280
 H         1.668365        -1.666015        -1.100131
 H         1.949867        -1.914966         0.733909
 H         0.057048        -0.587177         2.216739
 H        -1.140735         0.542158         1.502062
