19
Iteration:  1324charge 0 multiplicity 1
 O        -2.697674        -0.676560         1.700540
 C        -1.785112        -1.405637         0.916749
 C        -2.246568        -2.516217        -0.015986
 C        -1.729876        -1.219999        -0.670681
 O        -0.268684        -1.129225        -1.122575
 C         0.466689        -0.687611         0.033945
 C         0.997217         0.782240         0.057907
 C         1.912682        -0.413204        -0.002123
 C        -0.298736        -1.239595         1.243721
 H        -3.479449        -1.168092         1.954129
 H        -1.610855        -3.410495        -0.177704
 H        -3.259587        -2.810561        -0.129387
 H        -2.392739        -0.502976        -1.111396
 H         0.706375         1.438925        -0.838835
 H         0.882397         1.234267         1.082668
 H         2.129522        -0.895066        -1.047203
 H         2.545272        -0.530183         0.894231
 H        -0.135115        -2.196435         1.626806
 H        -0.507521        -0.466706         2.037997
