19
Iteration:  3319
 O        -2.785746        -0.820558         1.584062
 C        -1.731282        -1.325577         0.843390
 C        -2.133786        -2.613991        -0.178219
 C        -1.733719        -1.122623        -0.589599
 O        -0.389783        -1.010379        -1.006990
 C         0.366127        -0.531808         0.133262
 C         1.159971         0.666916        -0.005165
 C         1.881222        -0.674686        -0.005810
 C        -0.363601        -1.022793         1.325846
 H        -3.021060        -1.378672         2.366231
 H        -1.484496        -3.474911        -0.107637
 H        -3.207948        -2.868639        -0.032327
 H        -2.351220        -0.448593        -1.101368
 H         1.068447         1.142260        -0.983158
 H         1.121332         1.345510         0.821387
 H         2.451279        -0.944710        -0.957862
 H         2.292693        -0.745145         0.928253
 H         0.202623        -1.968258         1.577539
 H        -0.405932        -0.466110         2.268991
