19
Iteration:  3752charge 0 multiplicity 1
 O        -2.929825        -0.822905         1.475262
 C        -1.819293        -1.468662         0.882823
 C        -2.017919        -2.655642         0.026982
 C        -1.646751        -1.267681        -0.555492
 O        -0.451253        -0.681342        -1.096403
 C         0.373615        -0.573935         0.111631
 C         1.311558         0.615152         0.046314
 C         1.878479        -0.742683        -0.134056
 C        -0.385247        -0.990976         1.402272
 H        -2.957031        -1.173728         2.389269
 H        -1.208650        -3.366114        -0.002972
 H        -3.080569        -2.902697        -0.244170
 H        -2.564914        -0.723405        -1.025705
 H         1.203653         1.289133        -0.762142
 H         1.330316         1.150939         0.991897
 H         2.096148        -0.997619        -1.236336
 H         2.555243        -0.945646         0.677698
 H         0.161333        -1.719644         2.056390
 H        -0.580253        -0.124358         2.022758
