19
Iteration:  3274
 O        -2.928084        -0.723963         1.601147
 C        -1.806385        -1.316196         0.850863
 C        -1.907458        -2.506408         0.026350
 C        -1.722031        -1.266470        -0.646557
 O        -0.384368        -0.887315        -1.038141
 C         0.369816        -0.611004         0.033335
 C         1.163240         0.643291         0.136116
 C         1.901813        -0.689189        -0.141917
 C        -0.397345        -1.087480         1.275177
 H        -3.218390        -1.512745         2.155440
 H        -1.114232        -3.325008         0.113068
 H        -2.870898        -3.059890         0.007966
 H        -2.471076        -0.724785        -1.247529
 H         0.993475         1.406919        -0.611919
 H         1.281458         0.996490         1.232304
 H         2.129604        -0.833626        -1.210150
 H         2.399835        -1.277867         0.697793
 H         0.022214        -2.064533         1.670603
 H        -0.180297        -0.409738         2.080601
