19
Iteration:   936
 O        -2.778680        -0.916064         1.662429
 C        -1.792879        -1.376789         0.849203
 C        -2.000672        -2.535331        -0.113182
 C        -1.811169        -1.161169        -0.652786
 O        -0.487431        -0.894642        -1.028317
 C         0.442352        -0.586461         0.115578
 C         1.155037         0.659350        -0.083974
 C         1.890017        -0.661491         0.055935
 C        -0.367677        -1.008847         1.317644
 H        -2.955185        -1.253955         2.547833
 H        -1.255804        -3.278196        -0.177685
 H        -2.991614        -2.991780        -0.303867
 H        -2.557046        -0.579803        -1.146071
 H         1.237627         1.047784        -1.155180
 H         1.282872         1.542164         0.580418
 H         2.476444        -0.919286        -0.814208
 H         2.378103        -0.934789         0.911353
 H         0.014882        -1.967027         1.754020
 H        -0.361743        -0.243297         2.098501
