19
Iteration:  4278
 O        -3.088114        -0.987811         1.486252
 C        -1.826989        -1.269620         0.863313
 C        -1.520235        -2.627599         0.051591
 C        -1.719970        -1.216901        -0.633290
 O        -0.582890        -0.443478        -1.024313
 C         0.312600        -0.500239         0.131304
 C         1.417697         0.416142        -0.001660
 C         1.785578        -1.093563        -0.166994
 C        -0.491466        -0.741811         1.451762
 H        -3.150448        -1.397791         2.358008
 H        -0.482208        -2.850794         0.318464
 H        -2.150991        -3.541769        -0.057364
 H        -2.424011        -1.063222        -1.412353
 H         1.488547         1.005654        -1.044421
 H         1.866524         0.932359         0.850315
 H         1.773857        -1.502303        -1.179253
 H         2.196414        -1.587614         0.660539
 H         0.028935        -1.497292         2.135007
 H        -0.720458         0.225772         1.925280
