19
Iteration:  1598charge 0 multiplicity 1
 O        -2.938491        -0.834703         1.629786
 C        -1.837272        -1.374505         0.895946
 C        -1.872157        -2.680027         0.049111
 C        -1.753506        -1.176336        -0.620521
 O        -0.428945        -0.750715        -1.058056
 C         0.378798        -0.527581         0.061642
 C         1.412684         0.653740         0.054151
 C         1.781883        -0.773989        -0.130275
 C        -0.403915        -0.973396         1.263196
 H        -3.310567        -1.604159         2.082118
 H        -1.012942        -3.318640         0.139915
 H        -2.657560        -3.245450        -0.205683
 H        -2.742126        -0.849734        -1.135703
 H         1.310158         1.085648        -0.955362
 H         1.529540         1.254891         0.925222
 H         1.897714        -1.091091        -1.183578
 H         2.156426        -1.186562         0.722809
 H        -0.037520        -1.853279         1.883811
 H        -0.538213        -0.184789         2.000916
