19
Iteration:  1405charge 0 multiplicity 1
 O        -2.824328        -0.707677         1.579285
 C        -1.811098        -1.379145         0.810222
 C        -2.065535        -2.608534        -0.018425
 C        -1.736103        -1.181379        -0.634572
 O        -0.409387        -0.984293        -1.021311
 C         0.465291        -0.627858         0.120045
 C         1.051464         0.697920         0.126041
 C         1.933813        -0.621846        -0.138425
 C        -0.325373        -1.080794         1.296075
 H        -2.985385        -1.251612         2.387956
 H        -1.199259        -3.297545        -0.228710
 H        -3.057181        -3.070958         0.069503
 H        -2.531543        -0.590707        -1.211312
 H         0.903920         1.319453        -0.709926
 H         1.122770         1.185824         1.079234
 H         2.177757        -0.675453        -1.154644
 H         2.775619        -1.076216         0.419594
 H         0.000434        -2.009339         1.850489
 H        -0.422465        -0.436558         2.137082
