19
Iteration:  1996
 O        -2.835745        -0.895477         1.726684
 C        -1.801644        -1.392361         0.833255
 C        -1.735039        -2.600053        -0.139836
 C        -1.793011        -1.074804        -0.616092
 O        -0.478129        -0.769006        -1.108036
 C         0.330501        -0.500400         0.059917
 C         1.353465         0.567335         0.031678
 C         1.760629        -0.881737        -0.037308
 C        -0.500425        -0.875983         1.353858
 H        -3.075279        -1.710410         2.186687
 H        -0.823894        -3.085199        -0.043659
 H        -2.661985        -3.125116        -0.236157
 H        -2.711800        -0.879337        -1.049712
 H         1.489575         1.047351        -0.939867
 H         1.477039         1.212321         0.751149
 H         2.112989        -1.303311        -0.935331
 H         1.914951        -1.528807         0.745280
 H        -0.079031        -1.494746         2.155826
 H        -0.801149         0.007902         1.941480
