19
Iteration:   508charge 0 multiplicity 1
 O        -2.934869        -1.348950         1.560643
 C        -1.724146        -1.286194         0.939904
 C        -1.486493        -2.557880         0.120915
 C        -1.763030        -1.239532        -0.521961
 O        -0.653158        -0.458966        -1.105313
 C         0.287128        -0.392822         0.056306
 C         1.552494         0.406155        -0.006856
 C         1.569801        -1.176718        -0.141531
 C        -0.540555        -0.438524         1.279705
 H        -3.114884        -0.542120         2.076380
 H        -0.530857        -2.975712        -0.068178
 H        -2.260227        -3.285088         0.163240
 H        -2.648575        -1.003499        -1.120628
 H         1.618001         1.011294        -0.904195
 H         2.007161         0.784531         0.932571
 H         1.708880        -1.647346        -1.031704
 H         1.866049        -1.757318         0.737921
 H         0.082386        -0.578160         2.206507
 H        -0.879895         0.547066         1.304290
