19
Iteration:  3699
 O        -2.902616        -0.838527         1.738572
 C        -1.827502        -1.369798         0.875000
 C        -1.956827        -2.506592        -0.057500
 C        -1.731608        -1.139627        -0.684034
 O        -0.365843        -1.010219        -1.141426
 C         0.402481        -0.567171         0.033107
 C         1.200010         0.728879         0.071277
 C         1.847000        -0.715419        -0.033746
 C        -0.374277        -1.021562         1.311451
 H        -3.376820        -1.619339         2.088571
 H        -1.092188        -3.157773        -0.085249
 H        -2.997971        -2.824899        -0.003717
 H        -2.468388        -0.498756        -1.348984
 H         1.270641         1.273400        -0.864429
 H         1.264527         1.388913         0.930131
 H         2.462325        -1.109275        -0.912273
 H         2.115711        -1.092517         0.910133
 H         0.122383        -1.949598         1.716544
 H        -0.521933        -0.331206         2.127806
