19
Iteration:  1607
 O        -2.984223        -0.915802         1.639590
 C        -1.814432        -1.374839         0.863438
 C        -1.914769        -2.651449         0.099475
 C        -1.750425        -1.197008        -0.595255
 O        -0.406928        -0.713522        -1.141650
 C         0.394571        -0.514586         0.078774
 C         1.347033         0.667644         0.030515
 C         1.844267        -0.845739        -0.144661
 C        -0.442954        -0.921216         1.311754
 H        -3.298837        -1.650618         2.187766
 H        -1.116168        -3.337014         0.357748
 H        -2.859766        -3.068911        -0.230664
 H        -2.560361        -0.607400        -1.153138
 H         1.263763         1.341070        -0.854138
 H         1.672959         1.123358         0.968335
 H         2.328073        -1.212183        -1.062594
 H         2.452946        -1.326786         0.630170
 H         0.122124        -1.717383         1.814867
 H        -0.518344        -0.017960         1.943897
