19
Iteration:  4327charge 0 multiplicity 1
 O        -2.972400        -1.232760         1.617741
 C        -1.805223        -1.391791         0.814907
 C        -1.574073        -2.593981        -0.014658
 C        -1.738570        -1.178199        -0.636001
 O        -0.578215        -0.476606        -1.046350
 C         0.279005        -0.332685         0.021502
 C         1.708084         0.305606        -0.045430
 C         1.509922        -1.152750         0.066120
 C        -0.565605        -0.371190         1.337307
 H        -2.781598        -1.891213         2.328616
 H        -0.590122        -3.043292         0.045600
 H        -2.461547        -3.200659        -0.230306
 H        -2.649711        -0.728246        -1.260628
 H         2.136929         0.924271        -0.782793
 H         1.945174         0.744114         0.948294
 H         1.700904        -1.532748        -0.977413
 H         2.005867        -1.724151         0.938964
 H         0.047338        -0.776384         2.109039
 H        -1.125988         0.568841         1.512038
