19
Iteration:  1237
 O        -2.772210        -0.600633         1.576949
 C        -1.749530        -1.430582         0.809380
 C        -2.240636        -2.560684        -0.042984
 C        -1.726025        -1.265072        -0.635669
 O        -0.296160        -1.119353        -1.037135
 C         0.363447        -0.609323         0.156112
 C         0.988085         0.761886         0.110669
 C         1.843757        -0.425254        -0.113652
 C        -0.176174        -1.272549         1.304754
 H        -3.051049        -1.231170         2.272744
 H        -1.714627        -3.520342        -0.036297
 H        -3.284032        -2.477550        -0.125839
 H        -2.308187        -0.564194        -1.130626
 H         0.734824         1.384500        -0.770669
 H         1.200592         1.419930         1.019694
 H         2.140686        -0.766469        -1.099267
 H         2.764128        -0.611140         0.615150
 H         0.184896        -2.328703         1.541491
 H        -0.010299        -0.763971         2.311658
