19
Iteration:  3676charge 0 multiplicity 1
 O        -2.800037        -0.886189         1.601163
 C        -1.759328        -1.295471         0.833148
 C        -2.183470        -2.599357        -0.089936
 C        -1.749025        -1.197898        -0.627027
 O        -0.403156        -0.908354        -1.034981
 C         0.413973        -0.623843         0.144236
 C         1.146373         0.623212         0.000762
 C         1.972398        -0.604344        -0.023172
 C        -0.349954        -0.974432         1.370805
 H        -3.201790        -1.710413         1.829968
 H        -1.502577        -3.439368        -0.053406
 H        -3.271788        -2.644448        -0.183770
 H        -2.395003        -0.546357        -1.279905
 H         1.302681         1.224830        -0.893392
 H         1.271042         1.253317         0.806941
 H         2.253240        -0.982150        -1.082594
 H         2.597114        -0.864938         0.790614
 H         0.120263        -1.848405         1.900970
 H        -0.616894        -0.260163         2.103289
