19
Iteration:  1148
 O        -2.788090        -0.757439         1.587401
 C        -1.799037        -1.332861         0.844937
 C        -2.127492        -2.564778        -0.064267
 C        -1.739356        -1.248689        -0.599236
 O        -0.391311        -1.079224        -0.987572
 C         0.377529        -0.514708         0.095260
 C         1.186449         0.831031         0.040460
 C         1.843584        -0.584574        -0.128537
 C        -0.302487        -1.149391         1.364991
 H        -3.388179        -1.504798         1.660085
 H        -1.374571        -3.347734        -0.167953
 H        -3.250989        -2.906049         0.050437
 H        -2.594833        -0.807472        -1.038341
 H         1.048634         1.479902        -0.821737
 H         1.462212         1.413352         0.873073
 H         2.106080        -1.090488        -1.158897
 H         2.437460        -0.844019         0.816996
 H         0.216415        -2.178158         1.479827
 H         0.133395        -0.652933         2.369004
