19
Iteration:  4889
 O        -2.824807        -0.861064         1.758727
 C        -1.884120        -1.429884         0.877629
 C        -2.073202        -2.484397        -0.109320
 C        -1.762109        -1.089075        -0.676272
 O        -0.335009        -1.088813        -0.958664
 C         0.401667        -0.600052         0.126975
 C         1.266707         0.738347        -0.066601
 C         1.895440        -0.659152        -0.049876
 C        -0.425192        -0.988686         1.316032
 H        -3.694878        -0.987299         1.320726
 H        -1.207468        -3.168295        -0.262682
 H        -3.076033        -2.919241        -0.263125
 H        -2.486129        -0.605053        -1.340386
 H         1.075455         1.138432        -1.173895
 H         1.466014         1.461869         0.714743
 H         2.382097        -1.209459        -0.935518
 H         2.627489        -1.101635         0.669221
 H         0.101020        -1.771953         1.818317
 H        -0.464516        -0.087233         1.945836
