19
Iteration:  4835
 O        -2.901545        -0.779583         1.575935
 C        -1.799154        -1.234380         0.777844
 C        -1.968612        -2.536322         0.097815
 C        -1.692303        -1.177434        -0.645485
 O        -0.375383        -0.932914        -1.076816
 C         0.336232        -0.625749         0.102225
 C         1.206455         0.702625         0.031299
 C         1.839838        -0.725901        -0.073303
 C        -0.392164        -1.136477         1.354619
 H        -2.915152        -1.501068         2.217071
 H        -1.141283        -3.246548         0.107604
 H        -2.949727        -2.954677        -0.096187
 H        -2.480775        -0.662987        -1.121405
 H         1.163438         1.267780        -0.960379
 H         1.237430         1.192347         0.987552
 H         2.257701        -1.040387        -1.077356
 H         2.378156        -1.045013         0.790692
 H        -0.029707        -2.083941         1.705310
 H        -0.261964        -0.313054         2.018999
