19
Iteration:  2621charge 0 multiplicity 1
 O        -2.919219        -1.234090         1.550589
 C        -1.694759        -1.336803         0.880212
 C        -1.459106        -2.518177         0.024924
 C        -1.689821        -1.218348        -0.663944
 O        -0.668267        -0.239289        -0.951499
 C         0.243936        -0.410798         0.067650
 C         1.549571         0.276303        -0.107896
 C         1.508009        -1.292664         0.022818
 C        -0.546400        -0.470498         1.314420
 H        -3.016158        -1.909980         2.227123
 H        -0.453609        -2.842801        -0.152116
 H        -2.204548        -3.309929         0.016684
 H        -2.553061        -1.099226        -1.363495
 H         1.702084         0.791838        -1.001514
 H         1.891985         0.898619         0.792945
 H         1.558368        -1.782702        -0.911808
 H         1.689814        -1.766020         0.993815
 H        -0.028179        -0.907606         2.179217
 H        -0.940663         0.572891         1.477180
