19
Iteration:  3965
 O        -2.977815        -1.146992         1.476723
 C        -1.711373        -1.358219         0.874561
 C        -1.337493        -2.615048         0.112885
 C        -1.642978        -1.164663        -0.591320
 O        -0.627980        -0.293414        -1.007925
 C         0.203829        -0.418014         0.108114
 C         1.573627         0.225997        -0.057443
 C         1.471663        -1.218972        -0.128533
 C        -0.618659        -0.431847         1.372003
 H        -3.138627        -1.981191         1.943060
 H        -0.294012        -3.000172         0.170362
 H        -2.214983        -3.268606        -0.004574
 H        -2.667645        -1.275114        -1.038962
 H         1.581232         0.816062        -0.925681
 H         2.051157         0.847117         0.787695
 H         1.593594        -1.728033        -1.068917
 H         1.847011        -1.794154         0.734173
 H        -0.227494        -0.970104         2.220438
 H        -0.917532         0.592421         1.696343
