19
Iteration:  1266
 O        -2.682771        -0.661225         1.661225
 C        -1.804494        -1.381341         0.797197
 C        -2.171849        -2.483501        -0.007745
 C        -1.649131        -1.154775        -0.589416
 O        -0.293984        -1.150516        -1.018313
 C         0.434004        -0.711233         0.093133
 C         0.895497         0.737744         0.028095
 C         1.937127        -0.372777        -0.156464
 C        -0.357485        -1.333686         1.343519
 H        -3.443791        -1.305510         1.745798
 H        -1.522100        -3.384468         0.147588
 H        -3.242841        -2.500821        -0.459623
 H        -2.247310        -0.414546        -1.122117
 H         0.619365         1.166855        -0.880335
 H         0.852385         1.376797         0.859830
 H         2.407697        -0.509811        -1.103402
 H         2.545298        -0.596671         0.774822
 H        -0.161971        -2.319657         1.649902
 H        -0.374590        -0.730338         2.305841
