19
Iteration:  3401charge 0 multiplicity 1
 O        -2.709222        -0.633497         1.560784
 C        -1.806310        -1.332959         0.816915
 C        -2.044647        -2.612253         0.018655
 C        -1.740496        -1.179774        -0.594293
 O        -0.343267        -1.122761        -1.080068
 C         0.386852        -0.620834         0.089705
 C         1.060953         0.755277         0.192765
 C         1.808238        -0.510185        -0.144878
 C        -0.376429        -1.215629         1.334605
 H        -3.481814        -1.082344         1.843300
 H        -1.250959        -3.367580        -0.209112
 H        -3.023881        -2.919497        -0.391448
 H        -2.545121        -0.633754        -1.136627
 H         1.258444         1.505193        -0.585621
 H         1.278402         1.066233         1.260427
 H         2.386846        -0.575256        -1.101195
 H         2.421721        -1.046632         0.611428
 H         0.020756        -2.227614         1.495022
 H        -0.483636        -0.617572         2.262086
