19
Iteration:   816
 O        -2.868694        -0.843017         1.575008
 C        -1.766815        -1.356288         0.782044
 C        -1.830143        -2.549710         0.048740
 C        -1.746367        -1.193049        -0.601002
 O        -0.484077        -0.765053        -1.104843
 C         0.319349        -0.562163         0.116689
 C         1.195227         0.593766        -0.007443
 C         1.835063        -0.710549        -0.067291
 C        -0.418677        -1.096914         1.346899
 H        -2.596145        -1.168800         2.461663
 H        -0.903911        -3.226964         0.083168
 H        -2.715655        -3.099747        -0.113845
 H        -2.679381        -0.801474        -0.973912
 H         0.916854         1.287444        -0.898373
 H         1.442870         1.332172         0.991508
 H         2.257945        -1.257856        -0.949156
 H         2.347052        -1.056961         0.885877
 H         0.070125        -2.098908         1.774233
 H        -0.361075        -0.270684         2.084672
