19
Iteration:  4689charge 0 multiplicity 1
 O        -2.764079        -0.812063         1.616635
 C        -1.738100        -1.424986         0.873273
 C        -2.074538        -2.549614        -0.119481
 C        -1.766668        -1.173967        -0.631881
 O        -0.382835        -0.987738        -1.120290
 C         0.361480        -0.501411         0.118018
 C         1.258443         0.659377        -0.018692
 C         1.788929        -0.739498         0.033375
 C        -0.377756        -0.956763         1.398334
 H        -3.363758        -1.432398         2.103292
 H        -1.253815        -3.250025        -0.439864
 H        -3.020497        -3.124693        -0.137777
 H        -2.465376        -0.265889        -0.966255
 H         1.165344         1.162136        -1.086360
 H         1.467585         1.385837         0.784145
 H         2.002262        -1.269195        -0.946936
 H         2.211937        -0.999780         1.007855
 H         0.038059        -1.633490         2.081898
 H        -0.651965        -0.131619         2.121406
