19
Iteration:  3908charge 0 multiplicity 1
 O        -3.078641        -1.192473         1.572512
 C        -1.803401        -1.370638         0.880725
 C        -1.470700        -2.484174         0.038459
 C        -1.753566        -1.175740        -0.636659
 O        -0.616853        -0.375545        -1.012056
 C         0.329792        -0.482307         0.096302
 C         1.530592         0.342114        -0.087442
 C         1.704641        -1.182809        -0.068414
 C        -0.590707        -0.533628         1.335586
 H        -2.714247        -1.502861         2.449883
 H        -0.439482        -2.641590         0.237939
 H        -1.973288        -3.437258        -0.049784
 H        -2.566409        -1.048311        -1.226663
 H         1.867806         0.901056        -1.034959
 H         1.843559         0.721764         0.885703
 H         1.784333        -1.684671        -1.049975
 H         2.193454        -1.724068         0.697908
 H        -0.114251        -0.935132         2.222956
 H        -0.940666         0.499783         1.495503
