19
Iteration:  1605
 O        -2.978441        -0.896204         1.640082
 C        -1.810692        -1.379236         0.878828
 C        -1.899650        -2.659368         0.093545
 C        -1.765983        -1.184387        -0.605595
 O        -0.400671        -0.721041        -1.125301
 C         0.393910        -0.517286         0.077321
 C         1.366157         0.672383         0.035517
 C         1.821746        -0.826996        -0.152143
 C        -0.435128        -0.935440         1.290870
 H        -3.301741        -1.629246         2.155687
 H        -1.079490        -3.370434         0.360535
 H        -2.901072        -3.193070        -0.305080
 H        -2.567030        -0.661257        -1.098117
 H         1.260318         1.236045        -0.886962
 H         1.645627         1.161610         1.010796
 H         2.224776        -1.186897        -1.090574
 H         2.414161        -1.328615         0.734207
 H         0.031124        -1.738616         1.806206
 H        -0.515639        -0.036856         1.954402
