19
Iteration:  1647
 O        -2.916371        -0.999291         1.605307
 C        -1.826683        -1.328465         0.835269
 C        -1.790523        -2.569173        -0.043278
 C        -1.757919        -1.083310        -0.612691
 O        -0.493476        -0.778335        -1.042618
 C         0.397421        -0.546129         0.113615
 C         1.297596         0.606106        -0.009203
 C         1.808661        -0.971105        -0.101207
 C        -0.458648        -0.769765         1.372596
 H        -2.881443        -1.656668         2.328808
 H        -0.791756        -3.029923        -0.244614
 H        -2.650101        -3.378330         0.103596
 H        -2.609893        -0.678675        -1.045190
 H         1.241987         1.071721        -0.980096
 H         1.721528         1.172319         0.849366
 H         2.015499        -1.189363        -1.141632
 H         2.398375        -1.326948         0.802430
 H         0.025036        -1.383241         2.107680
 H        -0.764886         0.189833         1.853887
