19
Iteration:  2674charge 0 multiplicity 1
 O        -3.047433        -1.300777         1.649240
 C        -1.795171        -1.285007         0.814122
 C        -1.600696        -2.532889         0.013398
 C        -1.681341        -1.103705        -0.638458
 O        -0.567445        -0.420460        -1.008364
 C         0.318516        -0.440031         0.140412
 C         1.571173         0.346064        -0.113072
 C         1.624879        -1.178761        -0.079866
 C        -0.528124        -0.454647         1.325757
 H        -2.897891        -1.939970         2.352748
 H        -0.737592        -3.153608         0.203114
 H        -2.519775        -3.139524        -0.162460
 H        -2.547293        -1.025845        -1.301356
 H         1.682498         0.862272        -0.999241
 H         2.134296         0.888116         0.756622
 H         1.888645        -1.703369        -0.999179
 H         2.105972        -1.532508         0.906928
 H        -0.176503        -1.048182         2.184477
 H        -0.825366         0.534954         1.557421
