19
Iteration:  2469charge 0 multiplicity 1
 O        -2.982363        -0.956307         1.582647
 C        -1.760167        -1.375211         0.931108
 C        -1.831576        -2.520452        -0.054986
 C        -1.820764        -1.143525        -0.641240
 O        -0.594768        -0.777074        -1.048974
 C         0.433074        -0.601234         0.101527
 C         1.368530         0.573844         0.045387
 C         1.960025        -0.867738        -0.106134
 C        -0.451889        -0.818278         1.325880
 H        -3.177539        -1.528401         2.369694
 H        -0.888940        -2.934774        -0.382697
 H        -2.769876        -3.055512        -0.016805
 H        -2.696817        -0.901346        -1.132459
 H         1.633265         1.350695        -0.772673
 H         1.338573         0.920701         1.044344
 H         2.203461        -1.058147        -1.170176
 H         2.536161        -1.357948         0.633553
 H         0.085260        -1.426228         2.040745
 H        -0.612711         0.160785         1.927901
