19
Iteration:   844
 O        -2.931307        -0.763340         1.529750
 C        -1.792308        -1.395267         0.870517
 C        -1.851339        -2.630120        -0.011595
 C        -1.718543        -1.247468        -0.598571
 O        -0.470061        -0.873334        -0.994652
 C         0.402269        -0.537841         0.102505
 C         1.206858         0.675390         0.116839
 C         1.814792        -0.694590        -0.286556
 C        -0.357918        -1.011766         1.423933
 H        -3.002284        -1.321000         2.326620
 H        -1.159951        -3.428957         0.073882
 H        -2.912135        -2.863219        -0.240626
 H        -2.570436        -0.886865        -1.281809
 H         1.279644         1.455517        -0.539261
 H         1.249575         1.052212         1.116814
 H         2.035620        -0.811130        -1.310655
 H         2.568402        -1.402204         0.172536
 H         0.074875        -1.877715         1.850228
 H        -0.397587        -0.220542         2.166032
