19
Iteration:  4300
 O        -2.954728        -1.086909         1.477702
 C        -1.755895        -1.347664         0.879105
 C        -1.510963        -2.574507         0.058030
 C        -1.713414        -1.234520        -0.603748
 O        -0.610866        -0.442652        -1.023722
 C         0.302504        -0.520855         0.078393
 C         1.527332         0.442016         0.055337
 C         1.607940        -1.191758        -0.086569
 C        -0.590698        -0.547118         1.331029
 H        -2.922398        -1.332426         2.438594
 H        -0.584792        -3.126870        -0.123110
 H        -2.455012        -3.120998        -0.092889
 H        -2.514799        -0.971777        -1.175413
 H         1.462439         1.147751        -0.872287
 H         1.953740         0.875157         1.005470
 H         1.843543        -1.432635        -1.107881
 H         2.006008        -1.771987         0.678927
 H        -0.089656        -1.163690         2.139615
 H        -0.868786         0.475139         1.604192
