19
Iteration:  2958charge 0 multiplicity 1
 O        -2.949741        -1.183561         1.599398
 C        -1.757821        -1.368141         0.861289
 C        -1.574278        -2.545151        -0.052463
 C        -1.699096        -1.137439        -0.649993
 O        -0.573667        -0.439416        -1.080639
 C         0.269325        -0.454103         0.109782
 C         1.535678         0.372684        -0.008517
 C         1.551435        -1.180096        -0.044662
 C        -0.497524        -0.485891         1.382308
 H        -2.798909        -1.669904         2.412000
 H        -0.664150        -3.017900         0.108865
 H        -2.319442        -3.259889        -0.091658
 H        -2.574028        -0.952175        -1.362200
 H         1.659814         0.878044        -0.882906
 H         1.920201         0.899336         0.915537
 H         1.415587        -1.649938        -0.964271
 H         2.088273        -1.660293         0.732628
 H        -0.027039        -0.968019         2.291653
 H        -1.073892         0.360802         1.663767
