19
Iteration:  3481charge 0 multiplicity 1
 O        -2.714285        -0.724257         1.574244
 C        -1.754142        -1.261925         0.853315
 C        -2.222252        -2.474532        -0.196687
 C        -1.653067        -1.156461        -0.634293
 O        -0.348177        -1.253770        -0.956610
 C         0.383389        -0.619654         0.105340
 C         0.949519         0.802990         0.065750
 C         1.830362        -0.493034        -0.088823
 C        -0.234794        -1.277932         1.392479
 H        -2.763310        -1.049107         2.453057
 H        -1.438719        -3.191598        -0.408577
 H        -3.272236        -2.627224        -0.417255
 H        -2.239982        -0.484825        -1.234690
 H         0.714134         1.439904        -0.748496
 H         0.928362         1.231507         1.047613
 H         2.293689        -0.655218        -1.044219
 H         2.345208        -0.943657         0.788677
 H         0.199494        -2.222401         1.738577
 H        -0.156914        -0.685930         2.278773
