19
Iteration:  4592charge 0 multiplicity 1
 O        -2.903286        -0.668706         1.524287
 C        -1.811947        -1.453613         0.886490
 C        -1.903121        -2.720995        -0.022945
 C        -1.769062        -1.239939        -0.571083
 O        -0.522899        -0.801334        -1.061851
 C         0.389448        -0.536071         0.071821
 C         1.395007         0.669761         0.042493
 C         1.861554        -0.738031        -0.112939
 C        -0.421959        -1.057566         1.392183
 H        -3.446489        -1.384676         1.937372
 H        -1.118581        -3.476184        -0.102868
 H        -2.873388        -3.196309        -0.251365
 H        -2.697819        -0.653986        -0.978678
 H         1.195463         1.518695        -0.696549
 H         1.777253         1.002029         1.035711
 H         2.111066        -1.242276        -1.055151
 H         2.350522        -1.060743         0.773038
 H         0.358219        -1.531416         2.030117
 H        -0.526859        -0.126268         1.973926
