19
Iteration:  1731charge 0 multiplicity 1
 O        -3.037974        -1.126074         1.600538
 C        -1.778618        -1.288828         0.908711
 C        -1.419298        -2.568051         0.016032
 C        -1.754493        -1.211654        -0.643302
 O        -0.551214        -0.495490        -0.989009
 C         0.271016        -0.401615         0.077665
 C         1.533517         0.327314        -0.016098
 C         1.564330        -1.144499        -0.168394
 C        -0.563785        -0.499085         1.357506
 H        -3.060265        -1.817790         2.288273
 H        -0.356592        -2.692434        -0.042910
 H        -2.049167        -3.466373        -0.183114
 H        -2.581491        -1.041420        -1.208561
 H         1.788713         0.961842        -0.861616
 H         1.763420         0.786979         0.977399
 H         1.584263        -1.388671        -1.188660
 H         1.975212        -2.015941         0.398770
 H         0.110302        -1.007627         2.156194
 H        -0.801147         0.479413         1.797071
