19
Iteration:  3320charge 0 multiplicity 1
 O        -2.794010        -0.821656         1.584765
 C        -1.730266        -1.326828         0.843022
 C        -2.135072        -2.616370        -0.175334
 C        -1.730008        -1.110888        -0.579297
 O        -0.392153        -1.020353        -1.013709
 C         0.366725        -0.523123         0.133009
 C         1.154974         0.672822        -0.006680
 C         1.882501        -0.678623        -0.003653
 C        -0.359100        -1.024278         1.329822
 H        -3.007275        -1.368232         2.352695
 H        -1.505440        -3.460677        -0.124502
 H        -3.190046        -2.904430        -0.089686
 H        -2.319173        -0.438810        -1.117287
 H         1.091231         1.139004        -0.992236
 H         1.136118         1.318413         0.805127
 H         2.432771        -0.947661        -0.934293
 H         2.287023        -0.730726         0.912365
 H         0.213596        -1.971755         1.563088
 H        -0.361730        -0.472469         2.295510
