19
Iteration:  4535charge 0 multiplicity 1
 O        -2.980762        -0.944554         1.697782
 C        -1.856657        -1.332932         0.917593
 C        -1.802221        -2.515370        -0.120496
 C        -1.793914        -1.067653        -0.649458
 O        -0.417252        -0.890822        -1.082322
 C         0.340022        -0.612577         0.047049
 C         1.356035         0.560751        -0.051875
 C         1.900333        -0.843947        -0.008847
 C        -0.532725        -0.830235         1.379476
 H        -3.001219        -1.515671         2.487073
 H        -0.798339        -2.970517        -0.135746
 H        -2.742228        -3.079932        -0.287240
 H        -2.465604        -0.549634        -1.184267
 H         1.388142         1.060704        -0.939121
 H         1.487814         1.232272         0.784188
 H         2.368845        -1.076017        -0.980614
 H         2.488905        -1.229161         0.928284
 H         0.051499        -1.608002         1.767447
 H        -0.557876         0.206514         1.852980
