19
Iteration:   452charge 0 multiplicity 1
 O        -2.968305        -1.010044         1.599985
 C        -1.814435        -1.344427         0.869880
 C        -1.638998        -2.721605         0.135420
 C        -1.681664        -1.253280        -0.644166
 O        -0.548997        -0.532274        -1.033343
 C         0.286798        -0.390740         0.119456
 C         1.432134         0.508607        -0.235360
 C         1.720234        -0.958122        -0.071491
 C        -0.506711        -0.716373         1.430352
 H        -3.081728        -1.801354         2.194990
 H        -0.694147        -3.282285         0.278063
 H        -2.644681        -3.280907        -0.028449
 H        -2.451930        -1.026856        -1.409112
 H         1.494044         0.920261        -1.194339
 H         1.797165         1.172063         0.513567
 H         1.798371        -1.440290        -1.081342
 H         2.281910        -1.380870         0.686151
 H         0.207208        -1.369549         2.009657
 H        -0.814937         0.096605         2.018549
