19
Iteration:  4708
 O        -2.792060        -0.906430         1.604580
 C        -1.750558        -1.319271         0.831475
 C        -2.017863        -2.466888        -0.063732
 C        -1.693888        -1.143399        -0.629882
 O        -0.364283        -0.910402        -0.991421
 C         0.340247        -0.614213         0.106763
 C         1.147704         0.634103        -0.090250
 C         1.820421        -0.790909         0.014299
 C        -0.379211        -0.952276         1.392254
 H        -3.493116        -1.559528         1.736613
 H        -1.601922        -3.492131        -0.048560
 H        -3.128972        -2.540209        -0.080773
 H        -2.396840        -0.687246        -1.332998
 H         1.132184         1.189933        -1.022027
 H         1.298525         1.402295         0.574397
 H         2.211529        -1.098314        -1.038936
 H         2.433207        -1.033821         0.916094
 H         0.177511        -1.760939         1.929742
 H        -0.532137        -0.114068         2.130129
