19
Iteration:  2447charge 0 multiplicity 1
 O        -2.977114        -0.968551         1.540699
 C        -1.819018        -1.316666         0.909558
 C        -1.947266        -2.642854         0.009826
 C        -1.768845        -1.177185        -0.602358
 O        -0.456096        -0.766665        -1.074117
 C         0.376642        -0.509977         0.041190
 C         1.468237         0.594018         0.091759
 C         1.818738        -0.781823        -0.148090
 C        -0.386275        -0.893114         1.355217
 H        -3.024967        -1.407681         2.398789
 H        -0.995471        -3.109311         0.006471
 H        -2.951542        -3.092484        -0.121839
 H        -2.530670        -0.675672        -1.104694
 H         1.275321         1.259563        -0.790368
 H         1.740239         1.073299         1.025834
 H         2.047866        -1.059584        -1.180797
 H         2.083945        -1.432596         0.638312
 H         0.093182        -1.636861         1.978146
 H        -0.524334        -0.017530         2.094480
