19
Iteration:  4164
 O        -2.889557        -0.992796         1.581670
 C        -1.807311        -1.294888         0.815596
 C        -1.910839        -2.564916         0.047933
 C        -1.761152        -1.174456        -0.692180
 O        -0.466316        -0.709327        -1.037665
 C         0.362340        -0.512284         0.008910
 C         1.332585         0.604803        -0.004619
 C         1.776687        -0.961614         0.035026
 C        -0.387183        -0.834026         1.343520
 H        -2.708746        -1.468219         2.427125
 H        -1.081803        -3.250399         0.068864
 H        -2.830048        -3.029214        -0.236252
 H        -2.438330        -0.832260        -1.433906
 H         1.364363         1.155187        -0.909533
 H         1.358296         1.243294         0.872840
 H         2.301368        -1.400217        -0.894102
 H         2.277233        -1.207395         1.060842
 H        -0.040136        -1.720924         1.905084
 H        -0.582676         0.002550         2.080781
