19
Iteration:  2910
 O        -3.042329        -0.988969         1.442030
 C        -1.832161        -1.328129         0.889741
 C        -1.628215        -2.575700         0.077881
 C        -1.767758        -1.199652        -0.545628
 O        -0.620685        -0.484224        -1.041952
 C         0.376752        -0.520841         0.103453
 C         1.456029         0.466448         0.022582
 C         1.788069        -1.051524        -0.184670
 C        -0.403258        -0.792566         1.426635
 H        -3.451204        -1.617309         2.098405
 H        -0.609825        -3.096274         0.014282
 H        -2.335394        -3.411049        -0.288055
 H        -2.792820        -1.060732        -0.723437
 H         1.533876         1.128273        -0.950089
 H         1.803240         0.962094         0.871406
 H         2.016898        -1.282649        -1.303134
 H         2.475746        -1.394466         0.643982
 H         0.034522        -1.408660         2.205200
 H        -0.759905         0.192052         1.847836
