19
Iteration:  2596
 O        -3.000412        -1.210868         1.650287
 C        -1.815111        -1.340338         0.836495
 C        -1.432405        -2.562406         0.022420
 C        -1.678854        -1.163463        -0.678925
 O        -0.622998        -0.356969        -1.027810
 C         0.202702        -0.329662         0.060465
 C         1.664091         0.280254        -0.015762
 C         1.509787        -1.189984        -0.077658
 C        -0.621797        -0.547380         1.341630
 H        -2.755811        -1.628926         2.472346
 H        -0.415153        -3.022343         0.382233
 H        -2.167857        -3.329463        -0.275407
 H        -2.491548        -1.025602        -1.236592
 H         1.897441         0.963352        -0.959316
 H         2.258957         0.603680         0.785001
 H         1.672341        -1.520902        -1.210984
 H         1.985572        -1.729825         0.799965
 H         0.091531        -0.993140         2.111091
 H        -0.869981         0.421465         1.608534
