19
Iteration:  1472
 O        -2.810654        -0.811668         1.668951
 C        -1.748674        -1.328524         0.900554
 C        -1.916569        -2.517209        -0.083913
 C        -1.775137        -1.101494        -0.668000
 O        -0.524606        -0.922603        -1.105181
 C         0.469492        -0.708281         0.089581
 C         1.161935         0.694800        -0.031892
 C         1.888568        -0.694279        -0.002864
 C        -0.441877        -1.091132         1.415513
 H        -3.335372        -1.604394         1.741382
 H        -1.117685        -3.349004        -0.314790
 H        -2.947608        -3.010677        -0.161714
 H        -2.589038        -0.704799        -1.220640
 H         1.054398         1.276553        -0.940994
 H         1.338405         1.402310         0.682944
 H         2.374352        -1.276575        -0.866988
 H         2.526116        -0.745523         0.852415
 H         0.137510        -1.678891         2.035587
 H        -0.537366        -0.202208         2.048695
