19
Iteration:  3668charge 0 multiplicity 1
 O        -2.806522        -0.862720         1.581795
 C        -1.748477        -1.420150         0.771797
 C        -2.185662        -2.551197        -0.060664
 C        -1.726138        -1.160192        -0.657766
 O        -0.393305        -0.917733        -1.050573
 C         0.474403        -0.603502         0.159680
 C         1.136086         0.685706         0.015304
 C         1.977270        -0.619809        -0.086832
 C        -0.410146        -1.006282         1.446630
 H        -3.304145        -1.588429         1.979609
 H        -1.540199        -3.417551        -0.115896
 H        -3.228817        -2.800942         0.161377
 H        -2.597784        -0.469088        -1.132408
 H         0.998690         1.061302        -1.011897
 H         1.379430         1.260214         0.938123
 H         2.452063        -1.153696        -0.950393
 H         2.578181        -0.822164         0.744478
 H         0.071268        -1.868420         1.947267
 H        -0.620049        -0.203740         2.179683
