19
Iteration:  2810charge 0 multiplicity 1
 O        -2.874954        -0.999480         1.542106
 C        -1.693722        -1.371338         0.902804
 C        -1.814352        -2.480321         0.029585
 C        -1.801095        -1.068145        -0.685152
 O        -0.516820        -0.754524        -1.077014
 C         0.297761        -0.551834         0.056306
 C         1.386310         0.586415        -0.028404
 C         1.750309        -0.932111        -0.019686
 C        -0.453288        -0.885841         1.425818
 H        -3.277213        -1.742569         2.018756
 H        -0.851032        -3.005240        -0.221372
 H        -2.766888        -3.125878         0.095032
 H        -2.681056        -0.640717        -1.093926
 H         1.509485         1.043681        -0.938089
 H         1.652075         1.179210         0.954991
 H         1.946797        -1.296593        -1.007695
 H         2.370094        -1.217550         0.896149
 H         0.236460        -1.401252         2.065068
 H        -0.745289         0.115230         1.911086
