19
Iteration:   712charge 0 multiplicity 1
 O        -2.932689        -0.970405         1.628744
 C        -1.802368        -1.377180         0.870352
 C        -1.799659        -2.606295         0.090276
 C        -1.745515        -1.216865        -0.636618
 O        -0.509633        -0.629018        -1.064420
 C         0.367845        -0.558863         0.124741
 C         1.381695         0.611446        -0.062095
 C         1.831322        -0.814030        -0.141249
 C        -0.443896        -0.929199         1.386443
 H        -3.475059        -1.763477         1.670365
 H        -0.831304        -3.199743         0.069377
 H        -2.772859        -3.036340        -0.001166
 H        -2.539856        -0.682564        -1.215279
 H         1.264767         1.069784        -1.036635
 H         1.634380         1.189229         0.698259
 H         1.942028        -1.198184        -1.164205
 H         2.329262        -1.242427         0.703041
 H        -0.022349        -1.500915         2.148381
 H        -0.733386         0.057192         1.821601
