19
Iteration:  4528charge 0 multiplicity 1
 O        -3.028042        -0.915095         1.703432
 C        -1.793777        -1.382501         0.847378
 C        -1.823800        -2.561565        -0.135145
 C        -1.791602        -1.069824        -0.606660
 O        -0.446917        -0.875608        -1.053665
 C         0.358043        -0.573798         0.093021
 C         1.370445         0.575844        -0.064376
 C         1.896382        -0.850877        -0.009724
 C        -0.454524        -0.798325         1.341288
 H        -3.047179        -1.544394         2.479915
 H        -0.895325        -3.105202        -0.271089
 H        -2.729803        -3.133084        -0.345787
 H        -2.610841        -0.538167        -1.206173
 H         1.584392         0.973004        -1.089266
 H         1.374762         1.266928         0.846668
 H         2.305878        -1.159672        -0.959957
 H         2.398367        -1.322059         0.778004
 H         0.045108        -1.473545         2.140272
 H        -0.774953         0.025016         1.943775
