19
Iteration:  3528
 O        -2.791711        -0.672616         1.626295
 C        -1.777532        -1.320582         0.793644
 C        -2.191918        -2.509181        -0.158368
 C        -1.629924        -1.130805        -0.653841
 O        -0.319407        -1.082649        -0.979687
 C         0.424412        -0.786025         0.107487
 C         0.929227         0.715099         0.059232
 C         1.872847        -0.434447        -0.070483
 C        -0.206336        -1.283204         1.370005
 H        -3.371427        -1.402538         1.999357
 H        -1.626909        -3.272200         0.348883
 H        -3.263330        -2.527529        -0.232346
 H        -2.537994        -0.591036        -1.156681
 H         0.637615         1.115862        -0.939172
 H         1.125780         1.362329         0.910948
 H         2.305665        -0.721059        -1.050976
 H         2.643587        -0.527835         0.638802
 H         0.115494        -2.220519         1.737317
 H        -0.097338        -0.739341         2.326124
