19
Iteration:  2850
 O        -2.957369        -0.983940         1.717955
 C        -1.886887        -1.389181         0.835273
 C        -1.851236        -2.558452        -0.076869
 C        -1.802805        -1.181683        -0.681394
 O        -0.470664        -0.664108        -1.035151
 C         0.366666        -0.542772         0.091852
 C         1.438226         0.558566        -0.034802
 C         1.870099        -0.871449        -0.031757
 C        -0.445200        -0.838971         1.291338
 H        -2.943323        -1.578323         2.496943
 H        -0.992893        -3.152129         0.106495
 H        -2.790464        -3.006790        -0.066125
 H        -2.513450        -0.861760        -1.557925
 H         1.662765         1.078420        -0.970094
 H         1.555330         1.104601         0.892560
 H         2.253825        -1.294550        -0.931534
 H         2.384681        -1.232708         0.799916
 H        -0.068771        -1.451513         2.116890
 H        -0.780600         0.060243         1.764482
