19
Iteration:  2022
 O        -2.973700        -1.013833         1.551054
 C        -1.764760        -1.293116         0.865328
 C        -1.894279        -2.583593         0.004131
 C        -1.728212        -1.271934        -0.646586
 O        -0.557842        -0.556607        -0.988065
 C         0.375090        -0.560458         0.076332
 C         1.374179         0.469842        -0.016636
 C         1.857040        -0.885891        -0.109112
 C        -0.369574        -0.793352         1.363966
 H        -2.960797        -1.787932         2.117539
 H        -1.136033        -3.438961        -0.006929
 H        -2.934105        -2.934185        -0.079108
 H        -2.742147        -0.990117        -1.164660
 H         1.420438         1.239276        -0.803669
 H         1.583416         1.122883         0.981457
 H         2.109049        -1.315498        -1.149018
 H         2.544487        -1.027671         0.827229
 H         0.077231        -1.456308         2.092958
 H        -0.465372         0.148916         2.024321
