19
Iteration:  2582charge 0 multiplicity 1
 O        -2.992729        -1.214193         1.595124
 C        -1.810667        -1.298148         0.843561
 C        -1.483278        -2.503220         0.030057
 C        -1.765443        -1.226646        -0.624496
 O        -0.584636        -0.425555        -1.024194
 C         0.343525        -0.380939         0.134509
 C         1.625928         0.362158         0.009561
 C         1.536033        -1.168486        -0.185069
 C        -0.574992        -0.534964         1.344490
 H        -2.863174        -1.565431         2.518855
 H        -0.447637        -2.827632        -0.140185
 H        -2.177908        -3.371654         0.017022
 H        -2.647313        -1.064198        -1.460912
 H         1.862974         1.025231        -0.814137
 H         1.897198         0.711104         1.039018
 H         1.470402        -1.735393        -1.104581
 H         1.950536        -1.813168         0.591418
 H        -0.086818        -1.148582         2.116810
 H        -0.992372         0.445297         1.769802
