19
Iteration:  4460
 O        -3.097465        -0.899242         1.563000
 C        -1.900742        -1.317427         0.856185
 C        -1.463755        -2.578622         0.033414
 C        -1.736060        -1.210316        -0.634448
 O        -0.605805        -0.584213        -0.996496
 C         0.288960        -0.511993         0.087064
 C         1.481441         0.414346         0.020292
 C         1.810531        -1.004520        -0.189454
 C        -0.513394        -0.753941         1.370257
 H        -3.202594        -1.525810         2.306570
 H        -0.393850        -2.875596         0.120496
 H        -2.216748        -3.354300        -0.150735
 H        -2.542412        -1.110128        -1.226526
 H         1.565978         1.031027        -0.834137
 H         1.793429         0.753947         0.996200
 H         2.086334        -1.412484        -1.185657
 H         2.329573        -1.439855         0.723193
 H         0.016632        -1.527911         1.994941
 H        -0.614361         0.164703         1.969845
