19
Iteration:  3352charge 0 multiplicity 1
 O        -2.916793        -0.823477         1.582545
 C        -1.752762        -1.318603         0.883132
 C        -2.064290        -2.488279        -0.073110
 C        -1.701344        -1.043440        -0.640984
 O        -0.349258        -1.043427        -1.004067
 C         0.419369        -0.668897         0.131260
 C         1.147940         0.717015        -0.034917
 C         1.891421        -0.564058        -0.072045
 C        -0.385308        -1.203116         1.353228
 H        -3.085158        -1.465984         2.350829
 H        -1.451010        -3.378008        -0.079721
 H        -3.111263        -2.789849         0.082188
 H        -2.299641        -0.447068        -1.260692
 H         0.847518         1.039173        -1.042608
 H         1.142611         1.395533         0.756778
 H         2.539083        -0.861625        -0.970114
 H         2.484289        -0.731964         0.766050
 H         0.027446        -2.192888         1.724349
 H        -0.303145        -0.461235         2.158299
