19
Iteration:  3246
 O        -2.912702        -0.744131         1.440903
 C        -1.768595        -1.350374         0.896943
 C        -1.940340        -2.648461         0.032430
 C        -1.751410        -1.208326        -0.630488
 O        -0.466110        -0.840757        -1.114375
 C         0.353554        -0.541319         0.127761
 C         1.280181         0.643095         0.123403
 C         1.843222        -0.698229        -0.149608
 C        -0.334511        -1.104234         1.424099
 H        -3.050505        -1.414225         2.193783
 H        -1.111235        -3.264644         0.218888
 H        -2.951315        -3.028590         0.037009
 H        -2.606736        -0.657831        -1.030047
 H         1.046608         1.455211        -0.602096
 H         1.492568         1.114609         1.012349
 H         1.985277        -0.825979        -1.261966
 H         2.367078        -1.260700         0.557082
 H         0.086102        -2.047605         1.750745
 H        -0.191451        -0.407476         2.296490
