19
Iteration:   615charge 0 multiplicity 1
 O        -3.044971        -1.242894         1.569946
 C        -1.782074        -1.295355         0.899419
 C        -1.636394        -2.618270         0.142516
 C        -1.713405        -1.133790        -0.561860
 O        -0.549086        -0.506650        -1.033448
 C         0.355081        -0.367090         0.112708
 C         1.548758         0.409351        -0.114343
 C         1.685742        -1.067360        -0.171996
 C        -0.567678        -0.567477         1.342903
 H        -2.791775        -1.916846         2.218784
 H        -0.614901        -3.042134         0.013137
 H        -2.492002        -3.165227        -0.215512
 H        -2.560279        -0.877896        -1.202140
 H         1.681241         0.872709        -1.084787
 H         1.930649         0.920922         0.712225
 H         1.686239        -1.436604        -1.124108
 H         2.181145        -1.648387         0.637487
 H         0.010611        -1.026218         2.182774
 H        -1.025584         0.404291         1.789086
