19
Iteration:  3761
 O        -2.931581        -0.855629         1.433969
 C        -1.775044        -1.413245         0.892359
 C        -1.981012        -2.652786         0.025788
 C        -1.738741        -1.228805        -0.566229
 O        -0.522995        -0.744120        -1.039328
 C         0.444125        -0.566835         0.167712
 C         1.432937         0.714014         0.071713
 C         1.844345        -0.752046        -0.151031
 C        -0.420440        -0.993206         1.343958
 H        -3.024632        -1.041182         2.387289
 H        -1.316845        -3.499276         0.062641
 H        -2.928905        -3.157642        -0.287455
 H        -2.614621        -0.827035        -1.033932
 H         1.211121         1.351813        -0.770829
 H         1.431527         1.073943         1.058569
 H         2.006183        -1.173414        -1.234972
 H         2.650034        -1.061052         0.463801
 H         0.168054        -1.725571         1.903554
 H        -0.791312        -0.219920         2.022270
