19
Iteration:  4374charge 0 multiplicity 1
 O        -2.941422        -1.274662         1.588906
 C        -1.804808        -1.274005         0.843378
 C        -1.412926        -2.421554        -0.048673
 C        -1.735995        -1.136933        -0.595916
 O        -0.584127        -0.402041        -0.964628
 C         0.306559        -0.429085         0.125743
 C         1.520063         0.281982        -0.191175
 C         1.561340        -1.314542         0.114194
 C        -0.635105        -0.391701         1.303966
 H        -3.010317        -2.161175         1.915724
 H        -0.347335        -2.666189        -0.181767
 H        -2.167529        -3.210602        -0.203459
 H        -2.536215        -1.104438        -1.256748
 H         1.860856         0.571503        -1.214958
 H         1.753633         1.054935         0.486156
 H         1.660469        -2.141625        -0.634033
 H         1.859967        -1.479416         1.150542
 H        -0.133068        -0.992284         2.100851
 H        -0.939377         0.603974         1.537011
