19
Iteration:   255
 O        -2.872090        -0.910831         1.644538
 C        -1.774150        -1.397483         0.942836
 C        -1.893300        -2.640025         0.010887
 C        -1.751556        -1.214467        -0.594557
 O        -0.523973        -0.772204        -1.123801
 C         0.364369        -0.541410        -0.006243
 C         1.259241         0.642170        -0.077455
 C         1.866722        -0.788049         0.031084
 C        -0.379534        -0.860992         1.262256
 H        -3.170154        -1.563188         2.277601
 H        -1.103193        -3.471635        -0.042596
 H        -2.877977        -3.135810         0.050028
 H        -2.548983        -0.598879        -0.945477
 H         1.300110         1.183437        -0.994488
 H         1.231661         1.280964         0.778485
 H         2.384772        -1.163544        -0.805263
 H         2.235281        -1.096716         1.056647
 H         0.308063        -1.529206         1.920007
 H        -0.534838         0.033206         1.841879
