19
Iteration:  3682charge 0 multiplicity 1
 O        -2.826169        -0.887951         1.639589
 C        -1.773915        -1.258771         0.859259
 C        -2.134058        -2.566988        -0.092902
 C        -1.729153        -1.211792        -0.630158
 O        -0.406305        -0.927652        -1.022504
 C         0.366093        -0.628138         0.101952
 C         1.201353         0.645155        -0.015656
 C         1.935201        -0.640710         0.008747
 C        -0.328105        -1.002075         1.315322
 H        -3.255165        -1.717440         1.868128
 H        -1.531537        -3.494745        -0.156178
 H        -3.187652        -2.693622        -0.406856
 H        -2.410799        -0.694419        -1.282503
 H         1.210156         1.332813        -0.879477
 H         1.159897         1.341406         0.915821
 H         2.156772        -0.776067        -0.987811
 H         2.614331        -0.986515         0.881206
 H         0.113049        -1.802867         1.882834
 H        -0.401472        -0.097380         2.037359
