19
Iteration:  2555charge 0 multiplicity 1
 O        -2.992370        -1.168614         1.480900
 C        -1.724114        -1.322159         0.904161
 C        -1.615532        -2.494378         0.021879
 C        -1.719001        -1.146234        -0.545250
 O        -0.596004        -0.448405        -0.999105
 C         0.291352        -0.564254         0.095637
 C         1.423557         0.326161        -0.007064
 C         1.687205        -1.066652        -0.150744
 C        -0.456011        -0.569889         1.363967
 H        -3.106765        -1.783726         2.252791
 H        -0.638011        -3.008684         0.069199
 H        -2.370122        -3.236949        -0.101402
 H        -2.545534        -0.822931        -1.002316
 H         1.482033         0.960912        -0.952516
 H         1.686796         0.787393         0.896365
 H         1.925890        -1.464126        -1.187042
 H         2.202329        -1.543258         0.693885
 H         0.161705        -1.028700         2.169709
 H        -0.852495         0.473454         1.560495
