19
Iteration:  4761charge 0 multiplicity 1
 O        -2.901650        -0.755741         1.575588
 C        -1.776361        -1.285102         0.816017
 C        -1.984768        -2.585822         0.012432
 C        -1.702608        -1.232480        -0.626955
 O        -0.401679        -0.931193        -1.038124
 C         0.365620        -0.609720         0.102442
 C         1.228320         0.684171         0.116345
 C         1.821828        -0.738833        -0.139445
 C        -0.335296        -0.997062         1.345669
 H        -3.384953        -1.491120         1.969644
 H        -1.171760        -3.336552        -0.084191
 H        -2.957917        -3.041783        -0.220954
 H        -2.475490        -0.721700        -1.202864
 H         1.122576         1.389603        -0.759092
 H         1.316851         1.110596         1.093579
 H         2.037139        -0.927851        -1.264854
 H         2.375504        -1.267398         0.652781
 H         0.232138        -1.900931         1.841119
 H        -0.446958        -0.234275         2.158619
