19
Iteration:  2722charge 0 multiplicity 1
 O        -2.950422        -0.966283         1.544200
 C        -1.765251        -1.279599         0.913841
 C        -1.576789        -2.601609        -0.058667
 C        -1.770622        -1.240302        -0.509688
 O        -0.576940        -0.560867        -1.099623
 C         0.262548        -0.482948         0.046349
 C         1.482236         0.494138         0.087054
 C         1.640132        -1.074488        -0.113162
 C        -0.443894        -0.740276         1.382785
 H        -3.262239        -1.600762         2.227308
 H        -0.597958        -3.116017        -0.187324
 H        -2.308105        -3.286145        -0.377131
 H        -2.775165        -0.908775        -1.096697
 H         1.655405         1.274864        -0.790643
 H         1.659552         1.048875         0.931381
 H         1.829785        -1.650312        -1.048830
 H         2.007852        -1.678548         0.658862
 H         0.219410        -1.375530         1.946286
 H        -0.747003         0.244014         1.941163
