19
Iteration:   910charge 0 multiplicity 1
 O        -2.858297        -0.845009         1.747555
 C        -1.776329        -1.343813         0.849668
 C        -1.877335        -2.551173        -0.046168
 C        -1.723237        -1.096890        -0.686382
 O        -0.409018        -0.916821        -1.131167
 C         0.377390        -0.510302         0.111102
 C         1.143534         0.700252        -0.072009
 C         1.760894        -0.722757        -0.020469
 C        -0.358178        -1.129253         1.344065
 H        -3.279324        -1.414211         2.425468
 H        -1.016285        -3.256007        -0.225766
 H        -2.775953        -3.139177        -0.024126
 H        -2.521678        -0.692872        -1.364115
 H         1.105777         1.331088        -0.935686
 H         1.309851         1.370790         0.805372
 H         2.215100        -1.277459        -0.865083
 H         2.247907        -1.059333         0.983175
 H         0.034415        -2.031658         1.752091
 H        -0.410284        -0.385357         2.127746
