19
Iteration:  1382charge 0 multiplicity 1
 O        -2.841944        -0.672298         1.513851
 C        -1.702108        -1.353286         0.904213
 C        -1.996570        -2.551886        -0.074592
 C        -1.698434        -1.157453        -0.579524
 O        -0.391432        -1.000986        -1.092458
 C         0.361145        -0.705164         0.098397
 C         0.989571         0.653711         0.102791
 C         1.824656        -0.551564        -0.169661
 C        -0.298452        -1.209514         1.416250
 H        -2.858829        -0.901769         2.466461
 H        -1.184954        -3.242264        -0.086715
 H        -3.019027        -2.946975        -0.192469
 H        -2.444831        -0.458435        -1.181914
 H         0.758476         1.294613        -0.731828
 H         1.224170         1.190063         1.065852
 H         2.348551        -0.777322        -1.039154
 H         2.545249        -0.784935         0.638346
 H         0.122792        -2.140349         1.968544
 H        -0.323230        -0.556275         2.268676
