19
Iteration:  2648charge 0 multiplicity 1
 O        -3.001793        -1.299554         1.544545
 C        -1.704009        -1.293270         0.922188
 C        -1.465715        -2.477124        -0.039411
 C        -1.753885        -1.078887        -0.540749
 O        -0.624275        -0.468982        -1.106986
 C         0.278486        -0.365078         0.123966
 C         1.642269         0.283277        -0.114759
 C         1.579488        -1.239326        -0.017242
 C        -0.609373        -0.407765         1.449238
 H        -3.068563        -2.030831         2.156373
 H        -0.413901        -2.768660        -0.352707
 H        -2.164508        -3.309723        -0.088962
 H        -2.691590        -0.982264        -1.074410
 H         1.736941         0.832903        -1.146426
 H         2.035768         0.882276         0.628893
 H         1.523558        -1.714153        -1.052581
 H         1.839127        -1.857861         0.853304
 H        -0.183929        -1.004427         2.283757
 H        -1.019734         0.602201         1.694818
