19
Iteration:  2881charge 0 multiplicity 1
 O        -2.950890        -0.985382         1.512322
 C        -1.777955        -1.319477         0.848475
 C        -1.754535        -2.571882        -0.009041
 C        -1.734833        -1.213180        -0.639083
 O        -0.499104        -0.640632        -1.019231
 C         0.325037        -0.494838         0.155397
 C         1.368727         0.549931         0.022775
 C         1.686737        -0.992109        -0.130908
 C        -0.367019        -0.786236         1.404280
 H        -3.061607        -1.487093         2.343314
 H        -0.851763        -3.176088        -0.047603
 H        -2.702676        -3.056822        -0.073772
 H        -2.665233        -0.874695        -1.265354
 H         1.489266         1.173151        -0.896381
 H         1.649725         0.970260         0.967235
 H         1.790815        -1.340922        -1.161826
 H         2.324558        -1.402863         0.617397
 H         0.113686        -1.539391         2.139200
 H        -0.653804         0.096062         1.963389
