19
Iteration:  1103charge 0 multiplicity 1
 O        -2.834514        -0.879403         1.652457
 C        -1.766567        -1.264322         0.826045
 C        -2.003481        -2.479669        -0.056293
 C        -1.724397        -1.137568        -0.680325
 O        -0.382394        -0.954304        -1.041542
 C         0.388557        -0.783574         0.140483
 C         1.045088         0.624636        -0.033374
 C         1.906007        -0.584039        -0.129604
 C        -0.326121        -1.011704         1.435083
 H        -2.835469        -1.474240         2.401861
 H        -1.378498        -3.409378        -0.345036
 H        -3.074648        -2.829147         0.039420
 H        -2.451137        -0.597772        -1.319517
 H         0.722096         1.228336        -0.833682
 H         1.258045         1.178950         0.806591
 H         2.355350        -0.980073        -1.109259
 H         2.571616        -0.642717         0.714649
 H        -0.177307        -1.975711         1.999352
 H        -0.551136        -0.122394         2.146927
