19
Iteration:  1201charge 0 multiplicity 1
 O        -2.763553        -0.613806         1.584073
 C        -1.756821        -1.295142         0.826969
 C        -1.990890        -2.564785        -0.032620
 C        -1.784805        -1.158445        -0.685632
 O        -0.403293        -1.087792        -1.120448
 C         0.390234        -0.739166         0.090309
 C         0.935560         0.677597         0.153284
 C         1.859443        -0.499143        -0.035079
 C        -0.254670        -1.242479         1.333142
 H        -2.575796        -0.893683         2.488455
 H        -1.177011        -3.293165        -0.178901
 H        -3.050080        -3.091342        -0.085089
 H        -2.737391        -0.697423        -0.957854
 H         0.702261         1.276131        -0.693382
 H         0.968009         1.140238         1.077221
 H         2.266429        -0.550252        -1.074992
 H         2.502689        -0.825265         0.814953
 H         0.278950        -2.144034         1.561527
 H        -0.091518        -0.434016         2.119506
