19
Iteration:   501
 O        -2.981876        -1.278011         1.566030
 C        -1.714691        -1.319749         0.920806
 C        -1.456450        -2.566278         0.066250
 C        -1.762726        -1.277496        -0.540314
 O        -0.664878        -0.449344        -1.095725
 C         0.280005        -0.406810         0.090127
 C         1.499741         0.378072        -0.034055
 C         1.607582        -1.173287        -0.121343
 C        -0.517220        -0.426934         1.314938
 H        -2.901494        -0.547655         2.179596
 H        -0.424434        -2.957502         0.051490
 H        -2.175781        -3.350509         0.045480
 H        -2.708803        -0.918251        -0.954742
 H         1.593492         0.914572        -1.082555
 H         1.833777         1.012535         0.822169
 H         1.861691        -1.632062        -1.138793
 H         2.040888        -1.742100         0.751963
 H         0.022753        -0.915345         2.172568
 H        -0.850935         0.685819         1.569668
