19
Iteration:  3617charge 0 multiplicity 1
 O        -2.883720        -0.757381         1.537224
 C        -1.763693        -1.272655         0.811549
 C        -2.001707        -2.502859         0.015486
 C        -1.773813        -1.193305        -0.647048
 O        -0.352641        -1.005981        -1.022747
 C         0.414258        -0.649536         0.116825
 C         1.122011         0.760611         0.112194
 C         1.837941        -0.617821        -0.087139
 C        -0.329143        -1.222770         1.312952
 H        -2.969964        -1.191910         2.439801
 H        -1.221153        -3.197083        -0.305030
 H        -3.013118        -2.952920         0.017506
 H        -2.392288        -0.626951        -1.337624
 H         0.713864         1.200582        -0.823931
 H         1.281940         1.310873         1.111919
 H         2.178958        -0.857988        -1.109674
 H         2.609844        -0.948375         0.656682
 H         0.062254        -2.194376         1.566979
 H        -0.344972        -0.542661         2.232990
