19
Iteration:   467
 O        -2.982548        -1.039492         1.617186
 C        -1.828831        -1.365064         0.830164
 C        -1.521375        -2.624314         0.093875
 C        -1.686890        -1.296471        -0.642467
 O        -0.596147        -0.458874        -1.004326
 C         0.331573        -0.413454         0.155177
 C         1.462804         0.490306        -0.221318
 C         1.637157        -1.045657        -0.073391
 C        -0.538969        -0.721741         1.325848
 H        -2.704525        -1.213769         2.521414
 H        -0.556454        -2.958600         0.355461
 H        -2.219886        -3.312343        -0.170535
 H        -2.648232        -1.234722        -1.133313
 H         1.119378         0.856544        -1.256672
 H         2.080395         1.242097         0.376358
 H         1.892511        -1.773217        -0.759599
 H         2.130820        -1.131699         0.956821
 H        -0.189598        -1.556298         2.003162
 H        -0.731077         0.188191         1.983993
