19
Iteration:  4008
 O        -3.024198        -1.278304         1.601333
 C        -1.853915        -1.197174         0.908936
 C        -1.577217        -2.512758         0.021741
 C        -1.714453        -1.134505        -0.662025
 O        -0.542487        -0.493677        -1.097463
 C         0.360699        -0.476681         0.126041
 C         1.552431         0.374990        -0.128724
 C         1.703777        -1.137320        -0.034334
 C        -0.630174        -0.518461         1.381090
 H        -2.861373        -2.048448         2.204097
 H        -0.596287        -3.048545         0.180734
 H        -2.508982        -3.090971         0.047195
 H        -2.615225        -0.663591        -1.246558
 H         1.701210         0.781310        -1.106668
 H         2.094346         0.917300         0.743857
 H         1.935892        -1.762463        -0.853347
 H         2.053854        -1.630061         0.899862
 H        -0.105458        -0.952340         2.238265
 H        -0.944621         0.484775         1.773809
