19
Iteration:  4951
 O        -2.769963        -0.659154         1.657570
 C        -1.851495        -1.309597         0.887905
 C        -2.006742        -2.666798        -0.171186
 C        -1.808132        -1.296869        -0.584896
 O        -0.466243        -1.001585        -1.084291
 C         0.405793        -0.638203         0.039025
 C         1.213660         0.692639         0.126616
 C         1.951447        -0.646385        -0.049724
 C        -0.381474        -1.031955         1.364216
 H        -3.664128        -0.511926         1.265112
 H        -1.186479        -3.318760         0.042715
 H        -2.874762        -3.263474        -0.246957
 H        -2.550032        -0.773977        -1.084844
 H         1.386376         1.346702        -0.788641
 H         1.246915         1.175485         1.062827
 H         2.175350        -0.763418        -1.104820
 H         2.390242        -0.988354         0.753235
 H         0.024181        -1.996759         1.778210
 H        -0.249724        -0.166003         2.111823
