19
Iteration:  3348charge 0 multiplicity 1
 O        -2.931983        -0.832831         1.593578
 C        -1.741937        -1.332100         0.915027
 C        -2.035938        -2.421266        -0.106170
 C        -1.740156        -1.090562        -0.636370
 O        -0.331535        -1.060173        -0.999987
 C         0.402381        -0.673764         0.132563
 C         1.198216         0.731261        -0.054727
 C         1.858867        -0.554144        -0.064794
 C        -0.361436        -1.227044         1.321726
 H        -3.201863        -1.293118         2.374146
 H        -1.416898        -3.363851        -0.115247
 H        -3.063598        -2.775483         0.124650
 H        -2.379177        -0.377568        -1.218630
 H         0.957601         1.068448        -1.068774
 H         1.061205         1.499020         0.787819
 H         2.423710        -0.880369        -1.002824
 H         2.346821        -0.796617         0.950170
 H         0.120069        -2.085802         1.760517
 H        -0.394911        -0.495245         2.122047
