19
Iteration:  3163charge 0 multiplicity 1
 O        -2.991037        -1.027470         1.627508
 C        -1.717659        -1.282081         0.915019
 C        -1.887875        -2.482820        -0.010181
 C        -1.800210        -1.197292        -0.630129
 O        -0.477793        -0.794676        -1.115573
 C         0.361047        -0.499191         0.061006
 C         1.347543         0.610690        -0.016414
 C         1.844497        -0.894262        -0.021127
 C        -0.405321        -0.815414         1.379003
 H        -3.234550        -1.913378         1.906932
 H        -1.127066        -3.144717        -0.248618
 H        -2.771346        -3.067144         0.014084
 H        -2.509032        -0.593239        -1.122747
 H         1.535099         0.963280        -1.061727
 H         1.406833         1.184785         0.814757
 H         2.337153        -1.173374        -0.968213
 H         2.311993        -1.360208         0.816492
 H         0.188438        -1.638039         1.808222
 H        -0.356284         0.030297         2.026037
