19
Iteration:  1603charge 0 multiplicity 1
 O        -2.968781        -0.874552         1.637710
 C        -1.813163        -1.380577         0.892826
 C        -1.888330        -2.667902         0.083117
 C        -1.773459        -1.174092        -0.616035
 O        -0.400615        -0.729718        -1.104848
 C         0.392252        -0.520874         0.072625
 C         1.385418         0.672378         0.042753
 C         1.803650        -0.808284        -0.151936
 C        -0.425748        -0.946336         1.272755
 H        -3.310959        -1.637914         2.139377
 H        -1.052080        -3.386644         0.325658
 H        -2.871677        -3.270281        -0.326842
 H        -2.594009        -0.732251        -1.062863
 H         1.265677         1.141222        -0.916763
 H         1.606158         1.191972         1.014695
 H         2.105757        -1.156445        -1.135700
 H         2.335619        -1.290579         0.789161
 H        -0.030061        -1.785883         1.830791
 H        -0.519851        -0.081796         1.961584
