19
Iteration:  2912charge 0 multiplicity 1
 O        -3.039763        -1.001614         1.453333
 C        -1.847235        -1.314294         0.880314
 C        -1.634818        -2.582557         0.077201
 C        -1.761156        -1.203173        -0.568493
 O        -0.627603        -0.472487        -1.043757
 C         0.385836        -0.510401         0.117026
 C         1.462752         0.463041         0.007537
 C         1.787538        -1.059144        -0.169671
 C        -0.409332        -0.794705         1.426416
 H        -3.436166        -1.605381         2.114240
 H        -0.629286        -3.072458         0.081845
 H        -2.271486        -3.386027        -0.278439
 H        -2.885022        -1.126675        -0.754843
 H         1.559184         1.146723        -0.913606
 H         1.843327         0.921905         0.869114
 H         1.961759        -1.275153        -1.265547
 H         2.518214        -1.385487         0.594131
 H         0.113192        -1.397229         2.261868
 H        -0.719541         0.196770         1.791222
