19
Iteration:   146
 O        -2.953752        -0.970782         1.688906
 C        -1.738292        -1.294997         0.883599
 C        -1.564907        -2.657802         0.002516
 C        -1.737937        -1.348982        -0.608419
 O        -0.636589        -0.579030        -1.154407
 C         0.304194        -0.460033        -0.021889
 C         1.389465         0.516501         0.041487
 C         1.678352        -0.995958        -0.051793
 C        -0.449545        -0.624062         1.366414
 H        -3.400681        -1.842001         1.874809
 H        -0.464697        -3.094977         0.038172
 H        -2.256139        -3.624450        -0.030167
 H        -2.720269        -1.064639        -0.992471
 H         1.752515         0.916153        -0.895118
 H         1.548455         1.075681         0.976822
 H         1.996372        -1.245395        -1.177577
 H         2.008691        -1.648980         0.715373
 H         0.305759        -1.169697         2.091579
 H        -0.719976         0.297683         1.803306
