19
Iteration:  1099
 O        -2.845921        -0.874339         1.673376
 C        -1.772632        -1.270758         0.780891
 C        -1.979714        -2.492267        -0.043297
 C        -1.686160        -1.134595        -0.709969
 O        -0.419425        -0.963044        -1.011319
 C         0.372797        -0.740846         0.116772
 C         1.053587         0.587324        -0.028215
 C         1.903069        -0.607396        -0.123832
 C        -0.326986        -1.006382         1.428427
 H        -2.707375        -1.439564         2.485198
 H        -1.366933        -3.300049        -0.447226
 H        -3.019812        -2.657606         0.037772
 H        -2.457239        -0.658213        -1.395609
 H         0.677903         1.246869        -0.838752
 H         1.178700         1.216753         0.937734
 H         2.276294        -0.939125        -0.996869
 H         2.593733        -0.585737         0.708348
 H        -0.052181        -1.853039         2.028917
 H        -0.450026        -0.254311         2.138047
