19
Iteration:  3851charge 0 multiplicity 1
 O        -2.941777        -1.049956         1.676233
 C        -1.744317        -1.404169         0.854136
 C        -1.807367        -2.628107        -0.058462
 C        -1.753701        -1.162038        -0.573901
 O        -0.528061        -0.664580        -1.081711
 C         0.331195        -0.403701         0.096650
 C         1.610261         0.558961        -0.066833
 C         1.700583        -0.960478         0.029201
 C        -0.540666        -0.717753         1.294220
 H        -3.332762        -1.889066         1.883521
 H        -0.913705        -3.266995        -0.255239
 H        -2.773777        -3.085285        -0.207148
 H        -2.664121        -0.736641        -1.228446
 H         1.602839         0.969178        -1.081196
 H         2.100325         1.197569         0.677530
 H         2.081849        -1.412222        -0.851747
 H         1.837995        -1.256221         1.140176
 H         0.070084        -1.263603         2.057567
 H        -0.854546         0.193223         1.756682
