19
Iteration:  1231charge 0 multiplicity 1
 O        -2.742957        -0.636147         1.534163
 C        -1.753104        -1.398729         0.812805
 C        -2.202482        -2.536305        -0.007675
 C        -1.665704        -1.223410        -0.613489
 O        -0.307579        -1.138671        -1.016871
 C         0.375038        -0.596391         0.112118
 C         0.975500         0.808334         0.114728
 C         1.822305        -0.483237        -0.117514
 C        -0.238182        -1.291168         1.324773
 H        -2.910537        -1.115319         2.392107
 H        -1.653825        -3.469630        -0.030622
 H        -3.311376        -2.602287        -0.229423
 H        -2.566621        -0.596241        -0.987674
 H         0.739217         1.462695        -0.732097
 H         1.061355         1.302514         1.066036
 H         2.227671        -0.674798        -1.129772
 H         2.483320        -0.864257         0.588053
 H         0.298466        -2.241650         1.342917
 H        -0.118320        -0.751029         2.233508
