19
Iteration:  2136charge 0 multiplicity 1
 O        -2.981517        -1.324246         1.626148
 C        -1.755194        -1.265674         0.863729
 C        -1.507857        -2.496008        -0.020294
 C        -1.786234        -1.086808        -0.677205
 O        -0.610433        -0.516562        -1.053252
 C         0.278514        -0.421294         0.110839
 C         1.621872         0.353425        -0.028666
 C         1.571096        -1.176294        -0.043235
 C        -0.567038        -0.417417         1.349154
 H        -2.837325        -1.999960         2.287480
 H        -0.481856        -2.803013        -0.052324
 H        -2.257425        -3.230022         0.068226
 H        -2.701556        -0.769306        -1.224691
 H         1.990690         0.743500        -0.949048
 H         1.916260         0.910685         0.784265
 H         1.548408        -1.762332        -0.945528
 H         2.017984        -1.786821         0.649599
 H        -0.007637        -0.871824         2.224721
 H        -0.800115         0.554222         1.638805
