19
Iteration:  4928charge 0 multiplicity 1
 O        -2.814643        -0.833913         1.686158
 C        -1.778300        -1.322472         0.835661
 C        -1.989234        -2.476084         0.072183
 C        -1.720155        -1.132627        -0.679060
 O        -0.362044        -0.908046        -1.102853
 C         0.388485        -0.674629         0.095384
 C         1.102115         0.648174        -0.043032
 C         1.869081        -0.729785         0.030938
 C        -0.353672        -1.098394         1.316243
 H        -3.635173        -0.655551         1.187767
 H        -1.318778        -3.314465         0.023976
 H        -2.979009        -2.826493        -0.079690
 H        -2.403327        -0.679493        -1.349461
 H         0.838663         0.967939        -1.019530
 H         1.181000         1.366702         0.755025
 H         2.258613        -1.090378        -0.882757
 H         2.227440        -0.805137         0.980736
 H         0.050474        -2.045555         1.794652
 H        -0.410286        -0.215688         2.023841
