19
Iteration:  1083charge 0 multiplicity 1
 O        -2.830456        -0.883453         1.686530
 C        -1.785212        -1.290928         0.865994
 C        -1.987871        -2.497320        -0.083429
 C        -1.778389        -1.155218        -0.663452
 O        -0.343266        -1.009847        -1.059834
 C         0.375728        -0.595747         0.111524
 C         1.079702         0.716025         0.026925
 C         1.858132        -0.697401        -0.070515
 C        -0.373678        -1.030395         1.315095
 H        -2.574569        -1.095822         2.596387
 H        -1.180627        -3.240426        -0.084475
 H        -2.977179        -3.002713        -0.204418
 H        -2.460832        -0.666362        -1.313754
 H         1.015142         1.207197        -0.932655
 H         1.124744         1.312696         0.899201
 H         2.170496        -0.943341        -1.171988
 H         2.475733        -1.163326         0.714836
 H         0.119061        -1.974296         1.716222
 H        -0.401409        -0.127746         2.029936
