19
Iteration:  2242charge 0 multiplicity 1
 O        -2.969797        -1.053627         1.579255
 C        -1.789411        -1.356032         0.863277
 C        -1.499013        -2.545452        -0.029600
 C        -1.788797        -1.156026        -0.625702
 O        -0.588691        -0.471459        -1.002329
 C         0.313849        -0.608458         0.144432
 C         1.460936         0.361715         0.013255
 C         1.755936        -1.072566        -0.208040
 C        -0.606391        -0.619270         1.369282
 H        -2.881326        -1.445525         2.443898
 H        -0.519419        -3.023237         0.020901
 H        -2.255720        -3.291797         0.089398
 H        -2.679678        -0.848124        -1.174619
 H         1.366477         1.165891        -0.702858
 H         1.941808         0.718650         0.938405
 H         1.753128        -1.391231        -1.224063
 H         2.283384        -1.545927         0.580985
 H        -0.196831        -1.028648         2.334702
 H        -0.859623         0.454947         1.437493
