19
Iteration:  4700charge 0 multiplicity 1
 O        -2.761637        -0.845501         1.604722
 C        -1.696884        -1.420307         0.859827
 C        -2.042738        -2.480452        -0.055390
 C        -1.658896        -1.135292        -0.689658
 O        -0.406606        -0.956806        -1.047403
 C         0.311282        -0.536564         0.174064
 C         1.193345         0.650601        -0.075301
 C         1.777255        -0.770121         0.018881
 C        -0.411240        -0.978975         1.405906
 H        -3.279085        -1.638699         1.754330
 H        -1.341928        -3.351343        -0.199314
 H        -3.138910        -2.541538        -0.148799
 H        -2.598391        -0.492028        -1.090757
 H         1.145749         1.026113        -1.191205
 H         1.256074         1.337037         0.801635
 H         2.247284        -1.230716        -0.901156
 H         2.365660        -1.150922         0.869867
 H         0.267349        -1.611499         1.852874
 H        -0.697760        -0.053460         1.980260
