19
Iteration:  2228charge 0 multiplicity 1
 O        -2.967713        -1.137365         1.527576
 C        -1.751525        -1.233129         0.870337
 C        -1.498041        -2.537570         0.023210
 C        -1.711617        -1.213722        -0.615414
 O        -0.604334        -0.440770        -0.929092
 C         0.308991        -0.562717         0.091641
 C         1.407895         0.373820         0.057227
 C         1.597230        -1.167733        -0.190150
 C        -0.498136        -0.528800         1.334245
 H        -2.877713        -1.562465         2.425446
 H        -0.483968        -2.871731        -0.263523
 H        -2.371768        -3.213777        -0.206947
 H        -2.522784        -1.010137        -1.201546
 H         1.429039         0.866865        -1.032747
 H         1.612897         0.854492         0.998973
 H         1.925626        -1.562867        -1.208745
 H         2.136889        -1.876611         0.504850
 H        -0.007078        -1.012384         2.095345
 H        -0.765326         0.491424         1.764359
