19
Iteration:  3611
 O        -2.861914        -0.752175         1.534145
 C        -1.755179        -1.286721         0.807920
 C        -2.042600        -2.504665         0.036355
 C        -1.718235        -1.184248        -0.643780
 O        -0.372791        -0.991867        -1.057774
 C         0.407164        -0.702148         0.116533
 C         1.124763         0.715516         0.141018
 C         1.843344        -0.538826        -0.082619
 C        -0.344869        -1.232748         1.293407
 H        -2.894480        -1.240998         2.379480
 H        -1.271069        -3.265298        -0.134648
 H        -3.049091        -2.884129        -0.004783
 H        -2.550116        -0.772362        -1.240971
 H         0.939238         1.296818        -0.737959
 H         1.364252         1.323325         0.949577
 H         2.081578        -0.857162        -1.073445
 H         2.485848        -0.794291         0.784771
 H         0.018854        -2.219835         1.698258
 H        -0.347605        -0.470476         2.028881
