19
Iteration:  3047
 O        -3.019321        -1.194633         1.594735
 C        -1.715012        -1.359625         0.854829
 C        -1.449954        -2.577409         0.053815
 C        -1.714707        -1.167841        -0.642431
 O        -0.562855        -0.329925        -0.971084
 C         0.287945        -0.394698         0.137140
 C         1.596411         0.314942        -0.051931
 C         1.527069        -1.244867        -0.125972
 C        -0.631742        -0.487540         1.327954
 H        -3.249829        -1.824148         2.270436
 H        -0.440160        -2.936899        -0.120533
 H        -2.256208        -3.342440         0.017125
 H        -2.509319        -0.952721        -1.260413
 H         1.624737         0.835260        -1.094658
 H         2.106618         0.739295         0.762190
 H         1.539637        -1.612521        -1.183833
 H         2.097195        -1.799269         0.617608
 H        -0.102049        -0.789307         2.259382
 H        -1.112784         0.497401         1.419502
