19
Iteration:  1000charge 0 multiplicity 1
 O        -2.891377        -0.739041         1.655006
 C        -1.823087        -1.247819         0.877913
 C        -1.829563        -2.614698        -0.067070
 C        -1.723174        -1.227673        -0.668129
 O        -0.384239        -0.921704        -1.036063
 C         0.337504        -0.642448         0.165155
 C         1.130966         0.644481         0.097571
 C         1.822450        -0.677357        -0.245605
 C        -0.374074        -1.048149         1.374648
 H        -3.433679        -1.491213         2.017313
 H        -0.909417        -3.100624        -0.055145
 H        -2.718836        -3.261269        -0.210914
 H        -2.522177        -0.731874        -1.156387
 H         0.965238         1.524052        -0.696188
 H         1.410866         1.152474         1.120550
 H         2.011097        -0.875296        -1.350656
 H         2.581693        -1.043859         0.393783
 H        -0.004843        -2.017224         1.718144
 H        -0.270513        -0.410591         2.206507
