19
Iteration:  4723
 O        -2.939169        -0.882922         1.715408
 C        -1.830259        -1.236192         0.842609
 C        -2.060044        -2.545059        -0.024191
 C        -1.708773        -1.152389        -0.688119
 O        -0.375993        -0.936359        -1.071472
 C         0.463290        -0.636692         0.167696
 C         1.213856         0.650354        -0.055126
 C         1.941901        -0.698673        -0.075018
 C        -0.375754        -0.984163         1.377481
 H        -3.515163        -1.669173         1.514274
 H        -1.188463        -3.190847        -0.158957
 H        -3.087768        -2.905729        -0.152611
 H        -2.502268        -0.605732        -1.344434
 H         0.973388         0.994792        -1.102791
 H         1.376093         1.266159         0.906050
 H         2.336471        -1.204440        -0.911870
 H         2.509136        -0.950151         0.819631
 H        -0.086301        -1.876866         1.852411
 H        -0.307652        -0.109455         2.039261
