19
Iteration:  4377charge 0 multiplicity 1
 O        -2.959357        -1.262175         1.588345
 C        -1.798038        -1.285946         0.826587
 C        -1.405155        -2.431265        -0.048803
 C        -1.751317        -1.138710        -0.580499
 O        -0.580220        -0.404722        -0.972196
 C         0.319628        -0.404504         0.116141
 C         1.529558         0.272217        -0.187806
 C         1.553543        -1.295722         0.103977
 C        -0.627434        -0.424948         1.308127
 H        -3.014358        -2.186514         1.942346
 H        -0.371676        -2.720136        -0.174844
 H        -2.173977        -3.181763        -0.117344
 H        -2.550007        -1.100557        -1.247283
 H         1.790359         0.592303        -1.164969
 H         1.941042         1.131142         0.510287
 H         1.658359        -2.075799        -0.565855
 H         1.805779        -1.541201         1.102034
 H        -0.139083        -0.915883         2.196399
 H        -0.980755         0.592004         1.511951
