19
Iteration:  3624charge 0 multiplicity 1
 O        -2.897902        -0.757043         1.538220
 C        -1.801678        -1.283792         0.872154
 C        -1.974783        -2.550035        -0.063498
 C        -1.781312        -1.163449        -0.675111
 O        -0.345426        -1.030006        -0.992009
 C         0.394086        -0.563863         0.157869
 C         1.091674         0.754499         0.062001
 C         1.880620        -0.701469        -0.114725
 C        -0.310912        -1.160590         1.373490
 H        -2.975469        -1.195413         2.403954
 H        -1.107436        -3.188124        -0.238979
 H        -2.978844        -2.943479        -0.011715
 H        -2.358835        -0.366858        -1.401180
 H         0.695536         1.345616        -0.809763
 H         1.057069         1.237410         1.040870
 H         2.299405        -0.797455        -1.169071
 H         2.552260        -1.112851         0.553885
 H         0.069475        -2.214577         1.472391
 H        -0.139952        -0.742245         2.375258
