19
Iteration:  2188charge 0 multiplicity 1
 O        -2.977823        -1.231131         1.604262
 C        -1.830198        -1.338575         0.851681
 C        -1.490538        -2.598501         0.024934
 C        -1.753941        -1.209759        -0.590219
 O        -0.651201        -0.334524        -0.974114
 C         0.275068        -0.241252         0.078560
 C         1.765995         0.297548        -0.136302
 C         1.523242        -1.194338        -0.013426
 C        -0.592898        -0.527193         1.330961
 H        -3.119911        -2.091256         1.989682
 H        -0.432301        -2.878095        -0.092887
 H        -2.256353        -3.326617        -0.264392
 H        -2.566574        -1.083034        -1.244113
 H         1.988726         0.770214        -1.163047
 H         2.282348         0.935586         0.521021
 H         1.696835        -1.817510        -0.910652
 H         1.858722        -1.667413         0.894600
 H        -0.020762        -1.074305         2.190854
 H        -0.950159         0.448604         1.748568
