19
Iteration:  1619charge 0 multiplicity 1
 O        -2.974942        -0.991348         1.606582
 C        -1.839489        -1.300304         0.890008
 C        -1.940379        -2.551328         0.076014
 C        -1.654207        -1.222880        -0.652806
 O        -0.499329        -0.708934        -1.101145
 C         0.395084        -0.542709         0.038322
 C         1.322126         0.582936         0.012175
 C         1.931857        -0.851141        -0.131125
 C        -0.409577        -0.860587         1.386997
 H        -3.081540        -1.780758         2.203451
 H        -1.226106        -3.352452        -0.017008
 H        -2.926704        -2.842182         0.104190
 H        -2.587844        -1.025906        -1.328188
 H         1.343695         1.350465        -0.802683
 H         1.535727         0.988686         0.983132
 H         2.103544        -1.112398        -1.201281
 H         2.449680        -1.102510         0.743348
 H         0.140134        -1.568295         2.077232
 H        -0.638377         0.011377         2.012446
