19
Iteration:  1870charge 0 multiplicity 1
 O        -2.958876        -1.022717         1.600711
 C        -1.863255        -1.326234         0.883135
 C        -1.664768        -2.629423         0.040061
 C        -1.793455        -1.237852        -0.649793
 O        -0.669532        -0.484730        -0.994906
 C         0.346553        -0.554400         0.013511
 C         1.561662         0.506348         0.059615
 C         1.822230        -0.990235        -0.093356
 C        -0.511150        -0.699823         1.260286
 H        -2.998079        -1.628699         2.336814
 H        -0.729832        -3.121125         0.000527
 H        -2.465266        -3.238792        -0.311025
 H        -2.656726        -1.074406        -1.215126
 H         1.793210         1.087856        -0.901655
 H         1.650132         0.851872         1.054226
 H         2.245669        -1.604638        -0.948040
 H         2.250044        -1.472059         0.776338
 H        -0.015678        -1.392846         1.963742
 H        -0.615649         0.309630         1.690268
