19
Iteration:  1581
 O        -2.829191        -0.777544         1.572907
 C        -1.760670        -1.331108         0.868674
 C        -1.783807        -2.587387        -0.036159
 C        -1.799524        -1.289830        -0.674888
 O        -0.553690        -0.772765        -1.037594
 C         0.306915        -0.495151         0.132046
 C         1.266624         0.669004         0.005336
 C         1.807685        -0.844821        -0.105083
 C        -0.405800        -1.011169         1.426817
 H        -3.332447        -1.443855         2.076589
 H        -0.860638        -3.265946        -0.030755
 H        -2.857383        -3.178648        -0.139503
 H        -2.568481        -0.906010        -1.279736
 H         1.386467         1.264273        -0.909215
 H         1.555862         1.012955         1.022174
 H         2.208080        -1.075100        -1.106029
 H         2.534775        -1.313040         0.722034
 H         0.111560        -1.917857         1.736181
 H        -0.442951        -0.270061         2.242510
