19
Iteration:  2068
 O        -3.014702        -0.942277         1.529804
 C        -1.827986        -1.303307         0.914625
 C        -1.516872        -2.602380        -0.087610
 C        -1.750382        -1.217452        -0.637371
 O        -0.606050        -0.609955        -0.984506
 C         0.340281        -0.496937         0.146580
 C         1.427421         0.484527        -0.012177
 C         1.699790        -1.003000        -0.221108
 C        -0.468233        -0.758026         1.461938
 H        -3.204105        -1.490488         2.326048
 H        -0.481840        -3.014650        -0.008136
 H        -2.387704        -3.322739        -0.225958
 H        -2.534523        -0.900027        -1.243127
 H         1.465402         1.338317        -0.717503
 H         1.927161         0.824563         0.957001
 H         1.716316        -1.474740        -1.175257
 H         2.304026        -1.554686         0.580683
 H         0.053602        -1.472684         2.172376
 H        -0.595958         0.077215         2.127691
