19
Iteration:   889
 O        -2.860643        -0.882847         1.615165
 C        -1.748249        -1.273712         0.842594
 C        -2.012150        -2.561117         0.019353
 C        -1.680236        -1.257387        -0.586349
 O        -0.455862        -0.854298        -1.048162
 C         0.365865        -0.552708         0.059968
 C         1.188843         0.614175         0.062159
 C         1.864616        -0.654802        -0.142458
 C        -0.365817        -1.027614         1.352052
 H        -3.367616        -1.619619         1.940836
 H        -1.245187        -3.361861         0.017877
 H        -2.993678        -2.897442        -0.175407
 H        -2.556251        -0.867482        -1.146300
 H         1.109657         1.293795        -0.795328
 H         1.260637         1.354781         0.919407
 H         2.271178        -0.861636        -1.135212
 H         2.639632        -1.188197         0.503320
 H         0.159922        -1.882897         1.770796
 H        -0.375988        -0.209699         2.043551
