19
Iteration:  2432
 O        -2.932033        -0.908773         1.560527
 C        -1.775260        -1.366740         0.835547
 C        -1.871506        -2.538533         0.038105
 C        -1.675172        -1.228383        -0.650158
 O        -0.450058        -0.708500        -1.061725
 C         0.345430        -0.474407         0.137021
 C         1.316274         0.646039         0.034729
 C         1.733191        -0.917881        -0.141892
 C        -0.414563        -0.954271         1.393568
 H        -2.983418        -1.485386         2.376013
 H        -1.293482        -3.494426         0.048587
 H        -2.969512        -2.807544        -0.069494
 H        -2.493515        -0.867967        -1.341480
 H         1.534501         1.254524        -0.800817
 H         1.532816         1.185818         1.026636
 H         1.885823        -1.165756        -1.213401
 H         2.566719        -1.332590         0.611514
 H         0.183639        -1.845746         1.826335
 H        -0.562658        -0.141978         2.090330
