19
Iteration:  4900
 O        -2.846985        -0.914092         1.770056
 C        -1.809282        -1.268803         0.856893
 C        -2.023385        -2.466652        -0.071175
 C        -1.720309        -1.150571        -0.723633
 O        -0.344879        -1.053214        -1.013111
 C         0.395487        -0.526295         0.125263
 C         1.225242         0.658648        -0.112648
 C         1.866135        -0.709901        -0.024065
 C        -0.397271        -1.034420         1.392585
 H        -3.737286        -0.851558         1.336317
 H        -1.358271        -3.323810        -0.314918
 H        -3.097354        -2.711112        -0.170854
 H        -2.378302        -0.579174        -1.408431
 H         1.110517         1.153868        -1.167391
 H         1.296641         1.406562         0.666832
 H         2.115724        -1.065461        -1.070390
 H         2.352646        -0.815840         0.972262
 H         0.034227        -1.955724         1.759093
 H        -0.506061        -0.408611         2.281410
