19
Iteration:  1009charge 0 multiplicity 1
 O        -2.876764        -0.720552         1.630879
 C        -1.819670        -1.342435         0.906837
 C        -1.826187        -2.538938        -0.026502
 C        -1.665487        -1.206267        -0.626097
 O        -0.441241        -0.883256        -1.108504
 C         0.397017        -0.642362         0.118569
 C         1.096687         0.661323         0.100867
 C         1.831693        -0.673759        -0.217708
 C        -0.418258        -1.102514         1.410048
 H        -3.410929        -1.487633         1.978962
 H        -0.969329        -3.183882         0.085194
 H        -2.718028        -3.138650        -0.225474
 H        -2.385724        -0.965623        -1.347082
 H         0.788900         1.432475        -0.730657
 H         1.520146         1.098174         1.067051
 H         1.980776        -1.111184        -1.303005
 H         2.592249        -1.008056         0.508352
 H         0.058967        -2.031419         1.712133
 H        -0.327430        -0.390581         2.207037
