19
Iteration:  4845charge 0 multiplicity 1
 O        -2.833405        -0.833176         1.546264
 C        -1.759657        -1.271077         0.862430
 C        -2.045569        -2.504972         0.036978
 C        -1.693051        -1.162250        -0.677804
 O        -0.370897        -0.946183        -1.053689
 C         0.405847        -0.631980         0.096524
 C         1.121873         0.640768         0.070600
 C         1.789999        -0.726471        -0.057198
 C        -0.327434        -1.015507         1.320112
 H        -3.253720        -1.563731         2.052688
 H        -1.315872        -3.281565         0.207677
 H        -3.085785        -2.772811         0.107995
 H        -2.395378        -0.708713        -1.299088
 H         1.041984         1.198362        -0.923451
 H         1.373365         1.268647         0.935036
 H         2.142768        -1.042675        -1.061158
 H         2.412845        -1.125749         0.658640
 H         0.115284        -1.809739         1.862723
 H        -0.474016        -0.228817         2.055728
