19
Iteration:  1427charge 0 multiplicity 1
 O        -2.820817        -0.811621         1.620632
 C        -1.829848        -1.326803         0.868750
 C        -2.064931        -2.496348         0.030393
 C        -1.666641        -1.258269        -0.681230
 O        -0.388118        -0.988626        -1.112910
 C         0.355508        -0.555454         0.053441
 C         1.249070         0.755816         0.060578
 C         1.794805        -0.591604        -0.093712
 C        -0.336402        -1.136758         1.365016
 H        -3.240872        -1.540798         2.093822
 H        -1.481298        -3.480702         0.033009
 H        -3.137982        -2.671957        -0.129444
 H        -2.588943        -0.894139        -1.169506
 H         1.130877         1.474974        -0.704573
 H         1.491240         1.154973         1.009147
 H         2.243455        -0.953128        -0.993805
 H         2.371933        -1.029364         0.730858
 H         0.024103        -2.056456         1.855478
 H        -0.291292        -0.478253         2.208182
