19
Iteration:  3436
 O        -2.724822        -0.616666         1.567870
 C        -1.736926        -1.327603         0.848056
 C        -2.148379        -2.588788         0.095410
 C        -1.705360        -1.214550        -0.639932
 O        -0.339487        -0.952585        -1.128438
 C         0.414473        -0.689439         0.028351
 C         0.940682         0.719594         0.148751
 C         1.895208        -0.504954        -0.039153
 C        -0.320036        -1.322661         1.315396
 H        -3.214659        -1.379654         1.849119
 H        -1.535355        -3.488213         0.055516
 H        -3.150246        -2.663407        -0.421381
 H        -2.460227        -0.824601        -1.237349
 H         0.968092         1.300765        -0.805799
 H         0.956713         1.344334         1.034837
 H         2.470788        -0.677874        -1.027363
 H         2.271411        -0.817565         0.901108
 H         0.006402        -2.321979         1.602825
 H        -0.158229        -0.812346         2.234798
