19
Iteration:   514charge 0 multiplicity 1
 O        -2.923609        -1.397779         1.597719
 C        -1.702475        -1.292107         0.933141
 C        -1.497572        -2.560786         0.162030
 C        -1.755055        -1.167166        -0.589190
 O        -0.637247        -0.472958        -1.071864
 C         0.299417        -0.407854        -0.015261
 C         1.589516         0.386203        -0.000564
 C         1.528455        -1.140958        -0.126925
 C        -0.561348        -0.426666         1.289988
 H        -3.273781        -0.520433         1.924548
 H        -0.487269        -2.999277        -0.060857
 H        -2.462492        -3.221247         0.244435
 H        -2.668557        -1.162856        -1.180051
 H         1.796657         1.076914        -0.825235
 H         2.026307         0.674024         0.932266
 H         1.620908        -1.673915        -1.189641
 H         1.853404        -1.717123         0.727814
 H         0.012993        -0.473311         2.185530
 H        -1.069805         0.660271         1.290933
