19
Iteration:  4022
 O        -2.949977        -1.198096         1.591096
 C        -1.709482        -1.309371         0.809960
 C        -1.699664        -2.461522        -0.005682
 C        -1.744417        -1.158701        -0.661275
 O        -0.528437        -0.556241        -1.038658
 C         0.303098        -0.483784         0.083724
 C         1.500197         0.454933        -0.060630
 C         1.618619        -1.156720         0.041900
 C        -0.487305        -0.546509         1.400815
 H        -2.972771        -1.860300         2.310461
 H        -0.831738        -3.059912        -0.182595
 H        -2.598952        -3.039780        -0.121630
 H        -2.610379        -1.044160        -1.301172
 H         1.594804         0.849989        -1.092828
 H         1.721692         1.111166         0.670043
 H         1.910955        -1.645601        -0.899850
 H         2.105416        -1.443508         0.987495
 H        -0.057870        -0.965568         2.305073
 H        -0.792813         0.516747         1.481930
