19
Iteration:  4635
 O        -2.937027        -0.804985         1.512149
 C        -1.778967        -1.283060         0.813051
 C        -1.892275        -2.581080         0.140763
 C        -1.650335        -1.158366        -0.648493
 O        -0.384574        -0.777809        -1.131793
 C         0.388040        -0.646924         0.133029
 C         1.174471         0.585240         0.087717
 C         1.751978        -0.788038        -0.164545
 C        -0.359044        -1.054363         1.372309
 H        -2.961330        -1.165011         2.450771
 H        -1.182857        -3.422763         0.347112
 H        -2.956530        -2.923211         0.139872
 H        -2.512662        -0.813138        -1.423696
 H         0.985170         1.498643        -0.657591
 H         1.476960         1.043160         1.049158
 H         1.985795        -1.160848        -1.212416
 H         2.409510        -0.925177         0.689760
 H        -0.118323        -2.073731         1.867169
 H        -0.392719        -0.205057         2.148586
