19
Iteration:  1218
 O        -2.696646        -0.666627         1.503077
 C        -1.706252        -1.355634         0.925233
 C        -2.100662        -2.523219        -0.012234
 C        -1.695041        -1.191102        -0.594054
 O        -0.378025        -1.119501        -1.032962
 C         0.371738        -0.614927         0.034519
 C         0.948212         0.763480         0.128903
 C         1.830362        -0.509019        -0.100914
 C        -0.347567        -1.297619         1.287152
 H        -2.736482        -0.851708         2.436765
 H        -1.298884        -3.243420        -0.139364
 H        -3.082210        -2.842555         0.026054
 H        -2.142867        -0.466625        -1.390159
 H         0.987029         1.489579        -0.747523
 H         0.837423         1.255715         1.163802
 H         2.190656        -0.560777        -1.121926
 H         2.385663        -0.904999         0.689901
 H        -0.062141        -2.353870         1.630944
 H        -0.295810        -0.806809         2.202694
