19
Iteration:   773
 O        -2.854105        -0.996333         1.677719
 C        -1.748060        -1.389153         0.884993
 C        -1.993488        -2.596845        -0.024080
 C        -1.755091        -1.155305        -0.615385
 O        -0.483288        -0.870067        -1.124622
 C         0.388304        -0.466508         0.046255
 C         1.319093         0.655656        -0.051016
 C         1.841225        -0.746926        -0.007979
 C        -0.405061        -0.858287         1.323532
 H        -3.296486        -1.790263         1.988811
 H        -1.330100        -3.511918        -0.038256
 H        -3.053413        -2.818197        -0.154585
 H        -2.459279        -0.487713        -1.105426
 H         1.366575         1.264964        -0.971827
 H         1.509694         1.320572         0.906356
 H         2.327227        -1.299819        -0.790729
 H         2.324237        -1.090402         0.967954
 H         0.188042        -1.591512         1.988994
 H        -0.748358        -0.040751         1.980677
