19
Iteration:  3229charge 0 multiplicity 1
 O        -2.891631        -0.771462         1.484397
 C        -1.817007        -1.448710         0.857466
 C        -1.967192        -2.581604         0.011791
 C        -1.673634        -1.254518        -0.545454
 O        -0.435737        -0.763892        -0.976296
 C         0.392130        -0.593586         0.090598
 C         1.207775         0.686986         0.096406
 C         1.837598        -0.766267        -0.192379
 C        -0.360447        -1.032105         1.325359
 H        -3.252392        -1.069804         2.375572
 H        -1.300297        -3.430602        -0.260700
 H        -2.984445        -2.970762        -0.185921
 H        -2.547832        -0.895548        -1.132339
 H         1.270164         1.265685        -0.841973
 H         1.446428         1.085273         1.119408
 H         2.152209        -1.099331        -1.154082
 H         2.597935        -0.982782         0.659708
 H         0.225007        -1.814485         1.859340
 H        -0.607731        -0.234542         2.004913
