19
Iteration:  4292
 O        -2.975173        -1.050198         1.454694
 C        -1.798179        -1.356043         0.813686
 C        -1.485887        -2.560718         0.108387
 C        -1.713444        -1.161749        -0.604983
 O        -0.580460        -0.447781        -0.977514
 C         0.258982        -0.556870         0.103822
 C         1.492456         0.398911         0.002956
 C         1.618655        -1.113508        -0.115000
 C        -0.545921        -0.661967         1.326528
 H        -2.850907        -1.321442         2.384559
 H        -0.505219        -3.028836         0.172094
 H        -2.302878        -3.220691        -0.048428
 H        -2.635069        -0.982721        -1.080569
 H         1.569360         1.043698        -0.854653
 H         1.695774         0.837790         1.058327
 H         1.895417        -1.448057        -1.086745
 H         2.188128        -1.622924         0.637635
 H        -0.076038        -1.096420         2.193090
 H        -0.828053         0.363259         1.659444
