19
Iteration:  4815
 O        -2.964300        -0.666154         1.595885
 C        -1.892409        -1.351729         0.920888
 C        -1.901740        -2.589298        -0.066749
 C        -1.769196        -1.266815        -0.632709
 O        -0.453099        -0.885358        -1.082108
 C         0.380357        -0.595505         0.097816
 C         1.239802         0.699600         0.050029
 C         1.953709        -0.675704        -0.050063
 C        -0.364417        -1.135096         1.325691
 H        -2.976120        -0.726187         2.547304
 H        -0.958265        -3.169669         0.105248
 H        -2.844265        -3.171874        -0.129067
 H        -2.556796        -1.005026        -1.388663
 H         1.184776         1.035812        -1.046970
 H         1.450523         1.118749         0.958469
 H         2.418462        -1.086217        -1.067558
 H         2.614329        -1.052735         0.804664
 H         0.100832        -2.194957         1.340819
 H        -0.325642        -0.535106         2.216325
