19
Iteration:  4498
 O        -2.879083        -0.997066         1.466540
 C        -1.689598        -1.434604         0.838340
 C        -1.917716        -2.619261         0.058513
 C        -1.713406        -1.167359        -0.605662
 O        -0.481442        -0.634974        -1.030980
 C         0.321939        -0.513892         0.122687
 C         1.426246         0.501290        -0.060073
 C         1.749458        -0.894971        -0.064141
 C        -0.491998        -0.704289         1.422729
 H        -3.174987        -1.604248         2.130185
 H        -1.396050        -3.561859         0.089527
 H        -2.969814        -2.818690        -0.068148
 H        -2.670763        -0.704891        -1.174963
 H         1.455500         1.155689        -1.045718
 H         1.775458         1.112583         0.819710
 H         2.165418        -1.329276        -0.977193
 H         2.335128        -1.181061         0.762260
 H         0.074871        -1.514865         2.002308
 H        -0.852301        -0.033011         2.239920
