19
Iteration:  1074charge 0 multiplicity 1
 O        -2.831551        -0.860966         1.677701
 C        -1.829718        -1.361215         0.853534
 C        -2.012531        -2.550784        -0.066394
 C        -1.710400        -1.152246        -0.619785
 O        -0.366180        -1.013538        -1.106470
 C         0.363195        -0.607610         0.008487
 C         1.183050         0.763696         0.040648
 C         1.782828        -0.651078        -0.041408
 C        -0.358286        -1.038441         1.319381
 H        -2.691392        -1.002528         2.625116
 H        -1.155573        -3.137974        -0.058832
 H        -2.984564        -3.087535        -0.047030
 H        -2.469540        -0.583539        -1.014909
 H         1.276697         1.391111        -0.900925
 H         1.393142         1.489414         0.874842
 H         2.191111        -0.946348        -1.123436
 H         2.350259        -1.142943         0.781356
 H        -0.084959        -1.957458         1.864815
 H        -0.487763        -0.458260         2.220223
