19
Iteration:  2245
 O        -2.975469        -1.041568         1.583341
 C        -1.810421        -1.381566         0.866762
 C        -1.523149        -2.562554        -0.030453
 C        -1.795445        -1.142298        -0.611963
 O        -0.586912        -0.479739        -1.035903
 C         0.330714        -0.567077         0.152871
 C         1.480934         0.384086         0.022504
 C         1.765596        -1.067794        -0.220592
 C        -0.611851        -0.643312         1.387039
 H        -2.846780        -1.468720         2.470066
 H        -0.545435        -2.997923         0.094850
 H        -2.273934        -3.323558         0.041990
 H        -2.774539        -0.876100        -1.300551
 H         1.420100         1.063030        -0.746333
 H         1.926638         0.699223         0.987533
 H         1.805242        -1.492340        -1.194120
 H         2.463582        -1.469583         0.522464
 H        -0.162052        -1.003634         2.433506
 H        -0.870949         0.389053         1.435063
