19
Iteration:   735
 O        -2.947948        -1.015036         1.749087
 C        -1.883717        -1.306891         0.869512
 C        -1.762668        -2.546615        -0.129346
 C        -1.686611        -1.133161        -0.606346
 O        -0.468332        -0.866205        -1.036479
 C         0.391455        -0.566907         0.151074
 C         1.243248         0.607077        -0.026030
 C         1.896751        -0.873398        -0.202776
 C        -0.463084        -0.738862         1.405486
 H        -3.616722        -1.761836         1.755083
 H        -0.774173        -2.996541        -0.091474
 H        -2.673422        -3.094661        -0.209483
 H        -2.477772        -0.677627        -1.300105
 H         0.997496         1.205092        -0.936847
 H         1.531184         1.118842         0.863793
 H         2.053122        -1.193057        -1.286027
 H         2.491774        -1.073951         0.587152
 H        -0.048508        -1.532845         2.010299
 H        -0.456640         0.213677         1.976620
