19
Iteration:  1107charge 0 multiplicity 1
 O        -2.826380        -0.878529         1.628779
 C        -1.754055        -1.266296         0.873720
 C        -2.032521        -2.490193        -0.072706
 C        -1.766911        -1.137860        -0.647708
 O        -0.349472        -0.956666        -1.072618
 C         0.430452        -0.784166         0.161593
 C         1.037316         0.650443        -0.036185
 C         1.903455        -0.575666        -0.146424
 C        -0.357708        -1.027014         1.439588
 H        -2.956483        -1.542156         2.364209
 H        -1.393925        -3.322831        -0.152820
 H        -3.051289        -2.902747        -0.006945
 H        -2.422034        -0.545630        -1.222477
 H         0.732856         1.225289        -0.959187
 H         1.341601         1.260255         0.873913
 H         2.349933        -0.963752        -1.112485
 H         2.577272        -0.761106         0.752336
 H        -0.184311        -1.996024         1.958290
 H        -0.502650        -0.117218         2.043134
