19
Iteration:  4027charge 0 multiplicity 1
 O        -2.917363        -1.153916         1.587645
 C        -1.715534        -1.317281         0.844539
 C        -1.697114        -2.539142        -0.046321
 C        -1.782024        -1.155652        -0.643722
 O        -0.518638        -0.571963        -1.027824
 C         0.328836        -0.467412         0.095598
 C         1.463375         0.416874        -0.066744
 C         1.606699        -1.107385         0.073378
 C        -0.458710        -0.530850         1.329231
 H        -3.051652        -1.775054         2.314486
 H        -0.793348        -3.122464        -0.313103
 H        -2.693782        -3.015250        -0.106090
 H        -2.560779        -0.910824        -1.396172
 H         1.496262         0.839552        -1.051371
 H         1.623109         1.115904         0.883761
 H         1.941913        -1.563949        -0.861901
 H         2.090387        -1.552588         0.936532
 H         0.050338        -1.014152         2.200162
 H        -0.884077         0.432960         1.705765
