19
Iteration:   125charge 0 multiplicity 1
 O        -2.838896        -1.054053         1.673053
 C        -1.777648        -1.367762         0.823177
 C        -1.436171        -2.559225         0.068271
 C        -1.769886        -1.232049        -0.668735
 O        -0.622893        -0.514664        -1.039545
 C         0.258147        -0.395359         0.061052
 C         1.473730         0.457579        -0.161785
 C         1.588654        -1.061794         0.021167
 C        -0.597521        -0.638462         1.330402
 H        -3.081072        -1.839769         2.178310
 H        -0.425665        -3.096639         0.233205
 H        -2.278926        -3.320893        -0.139639
 H        -2.510814        -1.261369        -1.472253
 H         1.439688         0.872868        -1.155140
 H         1.748051         1.052293         0.702949
 H         1.922287        -1.844742        -0.798340
 H         1.876674        -1.345264         1.000731
 H        -0.011578        -1.308837         2.058643
 H        -0.976789         0.178411         1.873404
