19
Iteration:   992
 O        -2.892893        -0.777885         1.650853
 C        -1.806703        -1.227587         0.779988
 C        -1.870179        -2.645095        -0.052975
 C        -1.822239        -1.236544        -0.660618
 O        -0.349362        -0.957891        -0.958140
 C         0.371140        -0.563842         0.127103
 C         1.200096         0.656020         0.101169
 C         1.797711        -0.657078        -0.246143
 C        -0.331157        -1.056643         1.375715
 H        -3.393953        -1.533168         2.073206
 H        -0.893641        -3.085573        -0.160876
 H        -2.838132        -3.184117        -0.150818
 H        -2.593659        -0.534161        -1.089995
 H         1.072473         1.240404        -0.764936
 H         1.246926         0.981852         1.111254
 H         1.936905        -0.635983        -1.241814
 H         2.531523        -1.083749         0.372060
 H        -0.085860        -2.014303         1.881857
 H        -0.374665        -0.203418         2.099761
