19
Iteration:  2229charge 0 multiplicity 1
 O        -2.966830        -1.131035         1.532059
 C        -1.750512        -1.236183         0.868014
 C        -1.495813        -2.536987         0.019706
 C        -1.714050        -1.214440        -0.620299
 O        -0.602848        -0.443620        -0.925098
 C         0.308852        -0.579068         0.095505
 C         1.407107         0.371640         0.054962
 C         1.608267        -1.157000        -0.191269
 C        -0.507837        -0.529859         1.326709
 H        -2.891300        -1.546978         2.435667
 H        -0.481953        -2.864511        -0.270265
 H        -2.367073        -3.209160        -0.185547
 H        -2.512914        -0.985310        -1.158458
 H         1.408047         0.900750        -1.017774
 H         1.640534         0.842203         0.993138
 H         1.922641        -1.549024        -1.205566
 H         2.118475        -1.863370         0.491640
 H        -0.026381        -1.021135         2.109619
 H        -0.786366         0.487637         1.760174
