19
Iteration:  1292
 O        -2.670394        -0.674895         1.710107
 C        -1.691865        -1.303392         0.834484
 C        -2.098503        -2.389808        -0.096238
 C        -1.737332        -1.175189        -0.723707
 O        -0.306607        -1.216997        -1.064265
 C         0.396085        -0.697206         0.078279
 C         0.776021         0.763434         0.042444
 C         1.840689        -0.530147        -0.038118
 C        -0.195011        -1.232579         1.418656
 H        -3.489091        -1.260283         1.656549
 H        -1.360103        -3.168113        -0.388220
 H        -3.097964        -2.651987        -0.039010
 H        -2.331601        -0.518037        -1.355223
 H         0.514366         1.361585        -0.927158
 H         0.593875         1.246103         1.073276
 H         2.256584        -0.811439        -1.082260
 H         2.368627        -0.793490         0.940867
 H         0.004237        -2.387775         1.551223
 H        -0.099316        -0.567369         2.352583
