19
Iteration:  3753
 O        -2.929965        -0.826806         1.470673
 C        -1.817849        -1.467146         0.882776
 C        -2.019332        -2.652312         0.030446
 C        -1.648682        -1.267455        -0.549412
 O        -0.458680        -0.684567        -1.096313
 C         0.379706        -0.576485         0.120608
 C         1.330818         0.622780         0.046948
 C         1.873566        -0.745085        -0.141032
 C        -0.386845        -0.989465         1.394347
 H        -2.954153        -1.152852         2.371184
 H        -1.215615        -3.383530        -0.001912
 H        -3.061271        -2.932806        -0.262369
 H        -2.599458        -0.712945        -1.031545
 H         1.206391         1.294159        -0.757542
 H         1.302012         1.157053         1.021286
 H         2.065162        -1.005287        -1.216520
 H         2.582136        -0.912954         0.680627
 H         0.167911        -1.718910         2.051542
 H        -0.619564        -0.142285         2.033204
