19
Iteration:  4291charge 0 multiplicity 1
 O        -2.981614        -1.046244         1.453504
 C        -1.798147        -1.346447         0.815605
 C        -1.485556        -2.566718         0.106981
 C        -1.718697        -1.155189        -0.611794
 O        -0.578673        -0.448191        -0.975644
 C         0.265083        -0.553149         0.107834
 C         1.482836         0.384688         0.003414
 C         1.625117        -1.102421        -0.119130
 C        -0.542018        -0.674787         1.329474
 H        -2.851123        -1.327292         2.395897
 H        -0.494261        -3.012069         0.215814
 H        -2.290853        -3.257230        -0.047926
 H        -2.613022        -0.999408        -1.073548
 H         1.594922         1.050510        -0.888936
 H         1.674288         0.842761         1.048517
 H         1.887500        -1.462878        -1.081829
 H         2.183147        -1.585786         0.615710
 H        -0.055609        -1.100360         2.212127
 H        -0.833912         0.343925         1.664030
