19
Iteration:  1760
 O        -2.979630        -1.242902         1.519811
 C        -1.667994        -1.249940         0.864489
 C        -1.438766        -2.611066         0.079790
 C        -1.710841        -1.234375        -0.614603
 O        -0.645480        -0.302045        -1.046223
 C         0.271091        -0.377004         0.118291
 C         1.579687         0.282815        -0.059382
 C         1.503063        -1.227902        -0.096022
 C        -0.573396        -0.474936         1.377722
 H        -2.799861        -1.661778         2.406553
 H        -0.503513        -3.022838         0.088867
 H        -2.305400        -3.137147        -0.108469
 H        -2.690703        -1.271915        -1.180435
 H         1.606698         0.945950        -0.866490
 H         2.052624         0.826221         0.776385
 H         1.550314        -1.712493        -1.040524
 H         1.678864        -1.892965         0.757741
 H        -0.075979        -0.772911         2.268623
 H        -0.882433         0.544669         1.573768
