19
Iteration:  1452charge 0 multiplicity 1
 O        -2.839964        -0.827047         1.679944
 C        -1.857461        -1.312401         0.843114
 C        -2.022433        -2.567023        -0.016371
 C        -1.773899        -1.160372        -0.649484
 O        -0.349440        -0.911370        -1.040268
 C         0.381688        -0.520414         0.044793
 C         1.163500         0.638240        -0.000766
 C         1.899966        -0.678469        -0.026675
 C        -0.344168        -1.060600         1.291038
 H        -3.455126        -1.592716         1.795560
 H        -1.208346        -3.352792        -0.074281
 H        -3.041542        -3.072425        -0.030776
 H        -2.611635        -0.705269        -1.014362
 H         1.163124         1.065238        -1.021309
 H         1.189248         1.383639         0.775391
 H         2.421303        -1.002701        -0.994881
 H         2.452644        -1.088635         0.802560
 H         0.199797        -2.046710         1.752224
 H        -0.250435        -0.428821         2.249670
