19
Iteration:    90
 O        -3.107244        -1.397826         1.582616
 C        -1.754543        -1.326846         0.960174
 C        -1.448305        -2.512821         0.046626
 C        -1.769170        -1.236588        -0.618560
 O        -0.583387        -0.470114        -0.931339
 C         0.330011        -0.338916         0.100199
 C         1.604091         0.359992        -0.254444
 C         1.623289        -1.165313        -0.080148
 C        -0.555775        -0.283068         1.344125
 H        -3.109094        -1.901127         2.415343
 H        -0.488443        -3.056023        -0.201521
 H        -2.453239        -3.182127         0.230563
 H        -2.582165        -1.174302        -1.351285
 H         1.621432         0.834695        -1.273823
 H         2.091966         1.128275         0.384311
 H         1.653146        -1.732866        -1.009108
 H         2.061540        -1.617266         0.904876
 H         0.139393        -0.592122         2.239312
 H        -1.059332         0.631099         1.570159
