19
Iteration:  4185
 O        -2.972933        -0.985643         1.734049
 C        -1.817357        -1.257779         0.821065
 C        -1.771876        -2.510831        -0.064262
 C        -1.774784        -1.175054        -0.716346
 O        -0.480079        -0.814924        -1.173520
 C         0.321440        -0.532275         0.005303
 C         1.413573         0.550183         0.058462
 C         1.819427        -0.859320         0.087270
 C        -0.491779        -0.868021         1.320864
 H        -2.628909        -1.387429         2.575217
 H        -0.925963        -3.145563        -0.225049
 H        -2.700505        -3.006468         0.096439
 H        -2.574514        -0.672482        -1.140097
 H         1.433961         0.950962        -0.905557
 H         1.643379         1.250506         0.868118
 H         2.092924        -1.183613        -0.931530
 H         2.286897        -1.267101         1.028915
 H        -0.011916        -1.610210         1.962768
 H        -0.568288         0.122097         1.848655
