19
Iteration:  1501charge 0 multiplicity 1
 O        -2.842525        -0.895614         1.614100
 C        -1.784024        -1.353109         0.898191
 C        -2.014735        -2.521475        -0.021804
 C        -1.669737        -1.141012        -0.661444
 O        -0.416138        -0.946212        -0.988088
 C         0.347076        -0.581369         0.065005
 C         1.268254         0.685265         0.009328
 C         1.804717        -0.732957        -0.116674
 C        -0.441337        -0.937190         1.352063
 H        -3.098621        -1.738874         2.033936
 H        -1.212901        -3.287100        -0.089204
 H        -2.970640        -2.919699        -0.179162
 H        -2.465967        -0.523618        -1.301739
 H         1.222329         1.199880        -0.985983
 H         1.365621         1.275811         0.995937
 H         2.176729        -1.000889        -1.108810
 H         2.409808        -1.115825         0.692518
 H         0.261455        -1.781852         1.754484
 H        -0.480379        -0.251252         2.179797
