19
Iteration:  2218charge 0 multiplicity 1
 O        -2.987753        -1.187048         1.511342
 C        -1.757955        -1.269775         0.887586
 C        -1.498943        -2.542485         0.035846
 C        -1.736885        -1.171374        -0.602330
 O        -0.621681        -0.402207        -1.032996
 C         0.273784        -0.412339         0.068755
 C         1.471464         0.370512         0.020532
 C         1.558821        -1.265275        -0.132870
 C        -0.442294        -0.557478         1.422848
 H        -2.874171        -1.713898         2.336193
 H        -0.531679        -3.083685         0.087800
 H        -2.362283        -3.245945        -0.129160
 H        -2.469675        -1.135976        -1.279133
 H         1.803485         0.948295        -0.967683
 H         1.698919         0.988036         0.878657
 H         1.712331        -1.429226        -1.239446
 H         2.042485        -1.768368         0.727281
 H         0.120693        -1.069715         2.137963
 H        -0.628065         0.531990         1.689594
