19
Iteration:  4366
 O        -2.916994        -1.319002         1.614844
 C        -1.773317        -1.202492         0.881427
 C        -1.429801        -2.459428        -0.029902
 C        -1.721539        -1.102421        -0.730980
 O        -0.609362        -0.390250        -0.993407
 C         0.234492        -0.518612         0.108703
 C         1.520929         0.257628        -0.210927
 C         1.573164        -1.314265         0.174670
 C        -0.621520        -0.320015         1.333702
 H        -3.074774        -2.182914         1.976778
 H        -0.374513        -2.733729        -0.042074
 H        -2.047721        -3.264832        -0.387455
 H        -2.525507        -0.889709        -1.355570
 H         1.712140         0.456703        -1.241029
 H         1.599311         0.937927         0.768897
 H         1.817626        -1.875727        -0.651822
 H         2.070814        -1.518716         1.077906
 H        -0.095025        -0.913114         2.143636
 H        -0.869210         0.662878         1.750965
