19
Iteration:   793
 O        -2.903627        -0.865491         1.688539
 C        -1.805841        -1.407154         0.882338
 C        -1.976230        -2.618636        -0.094572
 C        -1.805066        -1.269020        -0.605073
 O        -0.511402        -0.728902        -1.063263
 C         0.427936        -0.568881         0.032233
 C         1.260471         0.637902        -0.070593
 C         1.892978        -0.724328         0.050522
 C        -0.336156        -0.962113         1.306071
 H        -3.087003        -1.495039         2.392701
 H        -1.101214        -3.246554        -0.300206
 H        -2.898262        -3.190433        -0.082962
 H        -2.486179        -0.847510        -1.384566
 H         1.439509         1.003344        -1.107326
 H         1.285428         1.608555         0.724616
 H         2.505744        -0.908927        -0.803414
 H         2.433329        -1.106064         1.006380
 H         0.190403        -1.865535         1.862841
 H        -0.354384        -0.085972         1.978268
