19
Iteration:  2734charge 0 multiplicity 1
 O        -2.980315        -0.965762         1.488209
 C        -1.715972        -1.358482         0.935197
 C        -1.665409        -2.553668         0.043968
 C        -1.750160        -1.231011        -0.655372
 O        -0.588810        -0.567727        -1.103421
 C         0.310641        -0.476857         0.061442
 C         1.428953         0.478496         0.068182
 C         1.686398        -1.015410        -0.132354
 C        -0.418416        -0.781066         1.438181
 H        -3.133252        -1.468153         2.332784
 H        -0.656599        -3.024818        -0.085372
 H        -2.578729        -3.136997        -0.021440
 H        -2.756574        -0.967028        -1.023886
 H         1.681166         1.096884        -0.838163
 H         1.604297         0.830652         1.050906
 H         1.913756        -1.227016        -1.211340
 H         2.195984        -1.553074         0.645815
 H         0.076594        -1.508624         2.103820
 H        -0.570285         0.164313         2.072403
