19
Iteration:  2183charge 0 multiplicity 1
 O        -2.975152        -1.239524         1.622801
 C        -1.830006        -1.341108         0.825013
 C        -1.472074        -2.600300        -0.030834
 C        -1.766154        -1.190532        -0.608964
 O        -0.657688        -0.332681        -0.952045
 C         0.303887        -0.274421         0.097721
 C         1.721468         0.304671        -0.184554
 C         1.524721        -1.203433         0.022195
 C        -0.556883        -0.480490         1.362106
 H        -3.210009        -2.110435         2.014546
 H        -0.427412        -2.911082         0.078985
 H        -2.293399        -3.308603        -0.239928
 H        -2.599832        -1.172102        -1.391196
 H         1.917979         0.708242        -1.189833
 H         2.261949         0.910894         0.613289
 H         1.730475        -1.791536        -0.883755
 H         1.928832        -1.899045         0.845135
 H        -0.114450        -0.901652         2.210865
 H        -0.989391         0.480189         1.723696
