19
Iteration:   527
 O        -2.907233        -1.465320         1.746019
 C        -1.739227        -1.311906         0.868634
 C        -1.494155        -2.539973         0.148719
 C        -1.750888        -1.176164        -0.645793
 O        -0.603850        -0.456677        -1.095509
 C         0.239647        -0.345333         0.045127
 C         1.657679         0.326693        -0.038107
 C         1.541480        -1.157893        -0.144431
 C        -0.617206        -0.292007         1.278254
 H        -3.421877        -0.714025         1.425821
 H        -0.604702        -3.185771         0.280756
 H        -2.465978        -3.193883         0.143820
 H        -2.551517        -0.997700        -1.370568
 H         2.178479         0.811501        -0.760059
 H         1.724080         0.692401         0.967614
 H         1.711442        -1.516876        -1.187035
 H         1.971124        -1.814428         0.604405
 H        -0.133945        -0.699381         2.144125
 H        -1.090842         0.731330         1.500136
