19
Iteration:  1045charge 0 multiplicity 1
 O        -2.826399        -0.795911         1.528206
 C        -1.769897        -1.403888         0.857801
 C        -2.071575        -2.638683         0.000538
 C        -1.819612        -1.302865        -0.604526
 O        -0.515681        -0.850833        -1.023762
 C         0.412083        -0.487879         0.052837
 C         1.209879         0.719989         0.042713
 C         1.935829        -0.662632        -0.026582
 C        -0.248996        -1.049853         1.283433
 H        -3.118179        -1.248954         2.379242
 H        -1.302530        -3.405143        -0.053943
 H        -3.133568        -2.859248         0.069751
 H        -2.701296        -0.884521        -1.182413
 H         1.182774         1.259643        -0.962967
 H         1.353982         1.314807         1.018435
 H         2.255636        -0.945446        -0.951625
 H         2.461204        -1.034332         0.833341
 H         0.169502        -2.021890         1.579096
 H        -0.274409        -0.507833         2.220798
