19
Iteration:   541
 O        -2.862067        -1.394219         1.817081
 C        -1.849396        -1.217522         0.879498
 C        -1.457208        -2.552481         0.026959
 C        -1.695624        -1.295998        -0.671162
 O        -0.631871        -0.396487        -1.124308
 C         0.299424        -0.304677         0.045614
 C         1.629875         0.305830        -0.001979
 C         1.564272        -1.224984        -0.087109
 C        -0.665428        -0.336808         1.283815
 H        -3.800302        -1.152443         1.607569
 H        -0.459569        -2.929658         0.002011
 H        -2.247358        -3.201641        -0.008415
 H        -2.616798        -1.274394        -1.267125
 H         1.702253         0.844226        -0.983368
 H         2.183147         0.834781         0.780591
 H         1.570397        -1.577501        -1.028198
 H         1.921047        -1.905688         0.700399
 H        -0.086446        -0.676648         2.200603
 H        -0.986265         0.617832         1.512206
