19
Iteration:  1025charge 0 multiplicity 1
 O        -2.832464        -0.765644         1.543808
 C        -1.774616        -1.341837         0.872460
 C        -1.956192        -2.642123         0.118165
 C        -1.685980        -1.195334        -0.622173
 O        -0.415325        -0.739563        -1.093381
 C         0.348907        -0.656541         0.097776
 C         1.137166         0.665080         0.024085
 C         1.858354        -0.662450        -0.152867
 C        -0.353694        -1.187367         1.353785
 H        -3.338273        -1.416208         2.067978
 H        -1.244221        -3.512738         0.165986
 H        -2.975589        -2.971129        -0.131474
 H        -2.631952        -0.790323        -1.123175
 H         0.933285         1.294362        -0.803329
 H         1.171110         1.309449         0.898208
 H         2.291880        -0.853210        -1.050772
 H         2.459545        -1.020754         0.679594
 H         0.060290        -1.982890         2.009955
 H        -0.450669        -0.315350         2.081096
