19
Iteration:  4533charge 0 multiplicity 1
 O        -3.001206        -0.933414         1.705707
 C        -1.830358        -1.354184         0.897534
 C        -1.806233        -2.537686        -0.128267
 C        -1.796440        -1.060921        -0.635976
 O        -0.424003        -0.888709        -1.072551
 C         0.335912        -0.604720         0.063450
 C         1.363487         0.568879        -0.051109
 C         1.902259        -0.845403        -0.009903
 C        -0.512277        -0.819083         1.364440
 H        -3.017880        -1.503307         2.464563
 H        -0.805929        -3.008054        -0.165554
 H        -2.728738        -3.077966        -0.323503
 H        -2.528446        -0.516932        -1.209244
 H         1.477443         1.044063        -1.048333
 H         1.435275         1.207850         0.767455
 H         2.369463        -1.083396        -0.987259
 H         2.480688        -1.278580         0.892563
 H         0.066892        -1.593743         1.876239
 H        -0.639066         0.203193         1.903340
