19
Iteration:  2723
 O        -2.952658        -0.967292         1.538328
 C        -1.751841        -1.278346         0.919129
 C        -1.586384        -2.587207        -0.049266
 C        -1.776306        -1.251412        -0.522618
 O        -0.572957        -0.560537        -1.103897
 C         0.260430        -0.483975         0.045463
 C         1.479037         0.495362         0.087249
 C         1.641014        -1.065467        -0.118785
 C        -0.442820        -0.745502         1.390036
 H        -3.289672        -1.579490         2.250756
 H        -0.598556        -3.116220        -0.202097
 H        -2.339053        -3.278146        -0.389999
 H        -2.740059        -0.951462        -1.035988
 H         1.669502         1.269972        -0.770033
 H         1.640377         1.071456         0.945502
 H         1.843015        -1.671853        -1.049229
 H         2.058479        -1.710770         0.650734
 H         0.216993        -1.408619         1.973139
 H        -0.744907         0.235837         1.960517
