19
Iteration:   533
 O        -2.877466        -1.446200         1.783824
 C        -1.813275        -1.259942         0.884669
 C        -1.480833        -2.557167         0.082222
 C        -1.733324        -1.257807        -0.639420
 O        -0.613057        -0.426552        -1.134055
 C         0.271806        -0.290903         0.077514
 C         1.641242         0.302985        -0.019362
 C         1.567960        -1.198400        -0.119993
 C        -0.654764        -0.294008         1.273797
 H        -3.653819        -0.895012         1.461473
 H        -0.561961        -3.126072         0.235120
 H        -2.353842        -3.166394         0.055401
 H        -2.529353        -0.989020        -1.337948
 H         2.102010         0.836447        -0.979352
 H         1.853420         0.813857         0.954695
 H         1.676440        -1.524294        -1.215582
 H         1.971960        -1.928006         0.590298
 H        -0.092152        -0.729887         2.136929
 H        -0.963834         0.738834         1.537703
