19
Iteration:  1018charge 0 multiplicity 1
 O        -2.848194        -0.750413         1.576078
 C        -1.797348        -1.389535         0.863438
 C        -1.882641        -2.564640         0.096115
 C        -1.700998        -1.190454        -0.604040
 O        -0.412371        -0.785510        -1.127029
 C         0.399075        -0.617168         0.075150
 C         1.119802         0.671379         0.052781
 C         1.834598        -0.668082        -0.170447
 C        -0.373181        -1.204526         1.405998
 H        -3.471809        -1.352321         2.069219
 H        -1.035924        -3.298563         0.229942
 H        -2.888671        -2.768899        -0.218217
 H        -2.527128        -0.971460        -1.269473
 H         0.763926         1.179599        -0.831755
 H         1.297053         1.062414         1.030213
 H         2.123362        -1.005409        -1.259107
 H         2.483508        -0.952400         0.703941
 H        -0.005332        -2.064183         2.018333
 H        -0.563001        -0.285756         2.012004
