19
Iteration:  4126
 O        -2.983501        -0.827055         1.489670
 C        -1.837408        -1.355105         0.877945
 C        -1.781442        -2.652592        -0.028957
 C        -1.720039        -1.222921        -0.586541
 O        -0.515227        -0.739377        -0.942693
 C         0.373072        -0.514462         0.102068
 C         1.427240         0.581825        -0.018563
 C         1.837789        -0.909952        -0.221313
 C        -0.513280        -0.895612         1.513622
 H        -3.502664        -1.535740         1.840127
 H        -0.706935        -2.996895        -0.098100
 H        -2.666468        -3.214873        -0.384856
 H        -2.692930        -0.745627        -1.057594
 H         1.262231         1.400704        -0.816031
 H         1.582007         1.079635         1.033377
 H         2.237515        -1.187362        -1.161445
 H         2.590546        -1.347974         0.423970
 H         0.215498        -1.437002         2.136165
 H        -0.586188         0.081464         1.977097
