19
Iteration:   815charge 0 multiplicity 1
 O        -2.865266        -0.844860         1.578991
 C        -1.769464        -1.359646         0.774539
 C        -1.825255        -2.554336         0.047463
 C        -1.748290        -1.183680        -0.599947
 O        -0.492160        -0.765059        -1.100827
 C         0.315383        -0.566492         0.109212
 C         1.200783         0.595855        -0.020370
 C         1.856249        -0.709157        -0.061375
 C        -0.427010        -1.095101         1.349193
 H        -2.609771        -1.181256         2.481424
 H        -0.937823        -3.234921         0.097083
 H        -2.719914        -3.086012        -0.138381
 H        -2.728682        -0.800354        -0.958888
 H         0.933207         1.275584        -0.901874
 H         1.427164         1.338428         1.002223
 H         2.265377        -1.248805        -0.921173
 H         2.344975        -1.050319         0.939613
 H         0.075067        -2.090946         1.768908
 H        -0.372918        -0.281827         2.087290
