19
Iteration:   593charge 0 multiplicity 1
 O        -2.942472        -1.190423         1.583547
 C        -1.730249        -1.366651         0.952858
 C        -1.494379        -2.590059        -0.015964
 C        -1.783701        -1.243789        -0.642973
 O        -0.693514        -0.409984        -1.026537
 C         0.301574        -0.342932         0.115838
 C         1.627002         0.388077        -0.183134
 C         1.541394        -1.124946        -0.021670
 C        -0.492141        -0.521152         1.417307
 H        -3.457788        -2.043051         1.579900
 H        -0.544368        -3.191085        -0.087207
 H        -2.404220        -3.250713         0.000114
 H        -2.688736        -0.970856        -1.192025
 H         1.697344         0.739640        -1.173350
 H         2.097210         0.945320         0.589831
 H         1.758652        -1.732278        -0.809330
 H         1.842700        -1.426488         1.030903
 H         0.091688        -1.010235         2.233319
 H        -0.668549         0.581025         1.751911
