19
Iteration:  4033
 O        -2.889207        -1.094534         1.581250
 C        -1.744338        -1.323226         0.896919
 C        -1.685550        -2.620497        -0.099060
 C        -1.791488        -1.146162        -0.636424
 O        -0.524903        -0.590230        -1.033414
 C         0.314141        -0.450653         0.103682
 C         1.442484         0.408201        -0.038546
 C         1.653215        -1.070321         0.085439
 C        -0.483027        -0.531324         1.292473
 H        -2.987954        -1.776619         2.307776
 H        -0.824652        -3.199581        -0.338420
 H        -2.668751        -3.065015        -0.043903
 H        -2.532695        -0.735099        -1.292253
 H         1.532234         0.886409        -1.035904
 H         1.601790         0.967415         0.762713
 H         1.947984        -1.539443        -0.876745
 H         2.027138        -1.617063         0.949651
 H         0.146567        -1.062384         2.011475
 H        -0.893072         0.317706         1.837204
