19
Iteration:  3027charge 0 multiplicity 1
 O        -2.895984        -1.299762         1.635850
 C        -1.771686        -1.251942         0.792976
 C        -1.473901        -2.504455        -0.047375
 C        -1.690501        -1.154289        -0.678517
 O        -0.587270        -0.411025        -1.023933
 C         0.262175        -0.344279         0.233967
 C         1.637970         0.281959        -0.122273
 C         1.451793        -1.259092        -0.040601
 C        -0.661506        -0.388091         1.421827
 H        -2.773670        -2.131698         2.142638
 H        -0.494981        -3.013570         0.170397
 H        -2.296273        -3.253276        -0.277938
 H        -2.497655        -1.085202        -1.336863
 H         1.812436         0.617114        -1.222126
 H         2.064108         0.874419         0.658600
 H         1.376921        -1.730680        -1.059005
 H         1.839147        -1.824188         0.832597
 H        -0.138566        -0.855112         2.223362
 H        -1.028069         0.635645         1.662752
