19
Iteration:  2012
 O        -2.874214        -0.964532         1.629258
 C        -1.792117        -1.365926         0.879697
 C        -1.859860        -2.600665        -0.022147
 C        -1.751120        -1.217357        -0.647522
 O        -0.541377        -0.605850        -1.053618
 C         0.361971        -0.566252         0.089646
 C         1.342873         0.557243         0.002514
 C         1.820686        -0.919028        -0.042268
 C        -0.444420        -0.824408         1.316990
 H        -3.212452        -1.609700         2.240637
 H        -0.903064        -3.182811        -0.214786
 H        -2.851913        -3.092443        -0.153758
 H        -2.498188        -0.647202        -1.276997
 H         1.295446         1.044238        -0.972086
 H         1.575782         1.101313         1.032318
 H         2.234879        -1.313827        -1.014661
 H         2.607466        -1.201638         0.770989
 H         0.132132        -1.490085         1.981825
 H        -0.681177         0.164810         1.775304
