19
Iteration:  4539charge 0 multiplicity 1
 O        -2.941632        -0.969398         1.680325
 C        -1.903926        -1.285228         0.934818
 C        -1.810414        -2.460887        -0.095643
 C        -1.764090        -1.105984        -0.656326
 O        -0.411815        -0.889047        -1.103950
 C         0.364264        -0.616954         0.024622
 C         1.332616         0.538285        -0.029545
 C         1.894465        -0.844388        -0.001808
 C        -0.555981        -0.844409         1.390039
 H        -2.962842        -1.528533         2.494042
 H        -0.839162        -2.935717        -0.113532
 H        -2.699240        -3.087155        -0.182974
 H        -2.550489        -0.518785        -1.290724
 H         1.222634         1.193812        -0.964152
 H         1.574238         1.254469         0.838309
 H         2.343970        -1.129241        -0.940139
 H         2.407029        -1.078505         0.868853
 H         0.078846        -1.705291         1.771391
 H        -0.419730         0.104788         1.804176
