19
Iteration:  3798
 O        -2.992996        -0.905164         1.566427
 C        -1.788699        -1.278586         0.883598
 C        -1.742538        -2.546511         0.018524
 C        -1.691336        -1.163157        -0.626813
 O        -0.453808        -0.773134        -1.116399
 C         0.365011        -0.574412         0.103094
 C         1.271473         0.620122         0.058914
 C         1.778857        -0.911364        -0.126158
 C        -0.432157        -0.925267         1.380052
 H        -3.248344        -1.555392         2.212243
 H        -0.806977        -3.097644         0.238387
 H        -2.672923        -2.977291        -0.257249
 H        -2.611691        -0.832107        -1.277522
 H         1.150114         1.473315        -0.619988
 H         1.465425         1.011124         1.088589
 H         1.805754        -1.141462        -1.145615
 H         2.495548        -1.453165         0.578871
 H         0.066655        -1.759422         1.943952
 H        -0.433440        -0.055713         2.038998
