19
Iteration:  4710
 O        -2.806303        -0.915468         1.610946
 C        -1.763927        -1.296915         0.831273
 C        -2.020615        -2.472948        -0.064782
 C        -1.699909        -1.149112        -0.618025
 O        -0.357850        -0.904802        -0.991013
 C         0.365776        -0.620228         0.096702
 C         1.142509         0.626162        -0.084936
 C         1.830465        -0.786595         0.007469
 C        -0.367232        -0.953235         1.390633
 H        -3.510864        -1.532113         1.726922
 H        -1.610116        -3.515213        -0.043222
 H        -3.129056        -2.590572        -0.079663
 H        -2.412767        -0.668280        -1.424204
 H         1.117187         1.202988        -1.086540
 H         1.325082         1.418906         0.616886
 H         2.191943        -1.089534        -1.036866
 H         2.427720        -0.997184         0.920199
 H         0.064363        -1.743433         1.932546
 H        -0.480430        -0.124825         2.161010
