19
Iteration:   762charge 0 multiplicity 1
 O        -2.788151        -1.058440         1.645141
 C        -1.764814        -1.378816         0.858786
 C        -1.983613        -2.483014         0.005817
 C        -1.733078        -1.103637        -0.604185
 O        -0.421243        -0.910050        -1.093687
 C         0.317047        -0.529449         0.084527
 C         1.326729         0.686608        -0.061940
 C         1.797023        -0.806303        -0.061979
 C        -0.494695        -0.818666         1.379129
 H        -3.343011        -1.863654         1.811395
 H        -1.146317        -3.193154        -0.259150
 H        -2.981934        -2.910145         0.155817
 H        -2.543802        -0.893223        -1.284601
 H         1.451762         1.295754        -0.969039
 H         1.565718         1.169173         1.026921
 H         2.067235        -1.072240        -1.055809
 H         2.443329        -0.957815         0.887287
 H         0.076063        -1.601776         2.034737
 H        -0.620120         0.123878         1.928172
