19
Iteration:  1040charge 0 multiplicity 1
 O        -2.833168        -0.774008         1.528836
 C        -1.751917        -1.400526         0.817472
 C        -2.087382        -2.675867         0.032401
 C        -1.751997        -1.285198        -0.604012
 O        -0.525292        -0.798036        -1.013399
 C         0.442833        -0.556047         0.055228
 C         1.162302         0.698673         0.049677
 C         1.907523        -0.644903        -0.038918
 C        -0.286199        -1.038400         1.316960
 H        -3.063981        -1.424131         2.193023
 H        -1.230461        -3.365082         0.035460
 H        -3.140577        -2.952963         0.123810
 H        -2.497142        -0.759524        -1.133161
 H         1.162076         1.053344        -0.979634
 H         1.349454         1.225437         0.955349
 H         2.259919        -0.894024        -1.148025
 H         2.472391        -1.054527         0.823918
 H         0.166914        -2.044091         1.416949
 H        -0.175942        -0.392048         2.218305
