19
Iteration:  2220charge 0 multiplicity 1
 O        -2.982400        -1.178948         1.509023
 C        -1.759302        -1.255425         0.886162
 C        -1.504079        -2.544043         0.033884
 C        -1.730391        -1.181452        -0.598684
 O        -0.617894        -0.410712        -1.009110
 C         0.282290        -0.432407         0.071779
 C         1.451464         0.374840         0.031147
 C         1.566066        -1.260401        -0.148426
 C        -0.449805        -0.545049         1.406824
 H        -2.843079        -1.692772         2.352967
 H        -0.527079        -3.047280         0.002038
 H        -2.329656        -3.224091        -0.172655
 H        -2.487794        -1.132222        -1.317275
 H         1.725866         0.875437        -0.949709
 H         1.631465         0.973943         0.906111
 H         1.749208        -1.448639        -1.214444
 H         2.059149        -1.760011         0.646946
 H         0.153839        -1.090808         2.176290
 H        -0.624966         0.523384         1.680119
