19
Iteration:  4233
 O        -2.952265        -0.988299         1.477181
 C        -1.769705        -1.381898         0.843649
 C        -1.865491        -2.661075         0.088227
 C        -1.730776        -1.199787        -0.659672
 O        -0.490146        -0.584442        -1.086643
 C         0.431747        -0.482847         0.189346
 C         1.428961         0.543467        -0.008689
 C         1.754469        -1.005787        -0.109872
 C        -0.458481        -0.709829         1.463069
 H        -3.296217        -1.713799         1.993542
 H        -0.987836        -3.336445        -0.097355
 H        -2.866518        -3.183316         0.007732
 H        -2.777970        -0.840111        -1.077442
 H         1.226456         1.125940        -1.006377
 H         1.704372         1.157581         0.835133
 H         1.941529        -1.286063        -1.166418
 H         2.348343        -1.361976         0.801543
 H         0.171056        -1.431484         2.090232
 H        -0.681662         0.219367         1.995844
