19
Iteration:   118charge 0 multiplicity 1
 O        -2.852151        -1.135437         1.656645
 C        -1.796526        -1.323257         0.786979
 C        -1.467387        -2.576963         0.077612
 C        -1.690816        -1.199436        -0.628640
 O        -0.626615        -0.465017        -1.044561
 C         0.281656        -0.416118         0.084093
 C         1.470933         0.422184        -0.229240
 C         1.619927        -1.081681         0.006864
 C        -0.634662        -0.622452         1.375322
 H        -2.904427        -1.949269         2.226481
 H        -0.610672        -3.051195         0.421929
 H        -2.193163        -3.185884        -0.174074
 H        -2.550388        -1.277813        -1.278260
 H         1.505218         0.889620        -1.204606
 H         1.881645         1.058561         0.542956
 H         1.770539        -1.831814        -0.706684
 H         1.849630        -1.284654         1.059304
 H        -0.106977        -1.080657         2.123360
 H        -1.192230         0.310690         1.818221
