19
Iteration:  1509charge 0 multiplicity 1
 O        -2.882749        -0.917548         1.616177
 C        -1.816362        -1.327272         0.809931
 C        -1.983004        -2.511647        -0.002951
 C        -1.775301        -1.175475        -0.626691
 O        -0.401653        -0.981987        -1.027168
 C         0.362930        -0.525599         0.112361
 C         1.329198         0.776336         0.019891
 C         1.833605        -0.741002        -0.138863
 C        -0.393898        -0.997692         1.355699
 H        -3.117101        -1.659738         2.185556
 H        -1.273024        -3.263560        -0.067719
 H        -3.028118        -2.724045        -0.013132
 H        -2.570513        -0.743983        -1.222940
 H         1.421813         1.309831        -0.923209
 H         1.542054         1.182321         1.049646
 H         2.068336        -1.095119        -1.100401
 H         2.469330        -1.133776         0.681529
 H         0.098342        -1.901748         1.872887
 H        -0.554621        -0.144849         2.060770
