19
Iteration:  3489charge 0 multiplicity 1
 O        -2.751832        -0.713274         1.569564
 C        -1.732694        -1.368188         0.844458
 C        -2.203395        -2.449728        -0.195816
 C        -1.679179        -1.071828        -0.609874
 O        -0.299582        -1.283135        -0.971975
 C         0.405758        -0.659683         0.144447
 C         0.968016         0.768409         0.072441
 C         1.800289        -0.476699        -0.076131
 C        -0.266162        -1.240491         1.323688
 H        -2.706411        -1.130820         2.416895
 H        -1.596867        -3.392752        -0.118780
 H        -3.321297        -2.631200        -0.135302
 H        -2.181743        -0.265381        -1.077568
 H         0.847369         1.465180        -0.813269
 H         0.869832         1.269010         1.054391
 H         2.057607        -0.571310        -1.214852
 H         2.527062        -0.671001         0.720941
 H         0.291795        -2.203800         1.643282
 H        -0.276942        -0.554235         2.222818
