19
Iteration:  2554charge 0 multiplicity 1
 O        -2.993912        -1.164153         1.483169
 C        -1.724369        -1.330502         0.907118
 C        -1.620856        -2.492114         0.024750
 C        -1.729931        -1.144606        -0.542501
 O        -0.588073        -0.446602        -0.995949
 C         0.293970        -0.562470         0.092454
 C         1.425732         0.336047        -0.008773
 C         1.695515        -1.067933        -0.149852
 C        -0.460003        -0.577054         1.358443
 H        -3.131958        -1.783998         2.234110
 H        -0.637518        -3.019022         0.059613
 H        -2.373766        -3.260645        -0.119538
 H        -2.528195        -0.848159        -0.997435
 H         1.481811         0.989585        -0.964198
 H         1.658124         0.802851         0.891616
 H         1.903588        -1.511915        -1.210478
 H         2.201765        -1.519918         0.741138
 H         0.186065        -1.040592         2.155759
 H        -0.827384         0.440379         1.533757
