19
Iteration:   979charge 0 multiplicity 1
 O        -2.851485        -0.857444         1.579062
 C        -1.776498        -1.365174         0.860819
 C        -1.983005        -2.546317        -0.022783
 C        -1.777871        -1.156844        -0.642717
 O        -0.456872        -1.018824        -1.013939
 C         0.399166        -0.572373         0.110648
 C         1.246513         0.740191         0.127308
 C         1.872998        -0.649982        -0.203423
 C        -0.385904        -1.002292         1.371331
 H        -3.144832        -1.625127         2.074152
 H        -1.219550        -3.237318        -0.184559
 H        -2.973959        -3.029515         0.039950
 H        -2.473569        -0.805540        -1.356926
 H         1.164615         1.494077        -0.721491
 H         1.447208         1.310179         1.072941
 H         2.036765        -0.840339        -1.253572
 H         2.521665        -1.206752         0.402804
 H         0.144615        -1.799109         1.900653
 H        -0.521768        -0.203488         2.072546
