19
Iteration:  1990charge 0 multiplicity 1
 O        -2.822180        -0.909489         1.748039
 C        -1.808175        -1.304882         0.848716
 C        -1.721600        -2.576678        -0.181326
 C        -1.758922        -1.120363        -0.611784
 O        -0.493391        -0.840396        -1.120779
 C         0.278272        -0.460797         0.044283
 C         1.378194         0.563246         0.040675
 C         1.664900        -0.865398        -0.030944
 C        -0.476428        -0.880418         1.372383
 H        -3.089532        -1.750076         2.221234
 H        -0.644476        -2.956214        -0.129095
 H        -2.657093        -3.133387        -0.371353
 H        -2.674772        -0.703649        -1.203867
 H         1.639228         0.898328        -0.991156
 H         1.445306         1.250221         1.027580
 H         2.158074        -1.390156        -0.940287
 H         2.116914        -1.486367         0.842413
 H        -0.022825        -1.629357         2.070386
 H        -0.708522         0.053829         1.954475
