19
Iteration:  2882charge 0 multiplicity 1
 O        -2.951350        -0.985610         1.507090
 C        -1.781231        -1.319888         0.854548
 C        -1.748907        -2.569323        -0.014075
 C        -1.729641        -1.206874        -0.640103
 O        -0.500455        -0.639475        -1.008412
 C         0.323179        -0.496952         0.149771
 C         1.367059         0.544940         0.013094
 C         1.687741        -0.990588        -0.131945
 C        -0.367160        -0.788706         1.405181
 H        -3.103244        -1.482792         2.349630
 H        -0.878462        -3.186313        -0.046270
 H        -2.674798        -3.080564        -0.026300
 H        -2.672067        -0.896536        -1.270129
 H         1.485494         1.167763        -0.860995
 H         1.652831         0.964187         0.993299
 H         1.778775        -1.309901        -1.139520
 H         2.296977        -1.421629         0.618031
 H         0.149834        -1.523477         2.118892
 H        -0.631785         0.111360         1.944065
