19
Iteration:  3153
 O        -2.927036        -1.034902         1.595772
 C        -1.796496        -1.351594         0.898295
 C        -1.856844        -2.566578         0.045010
 C        -1.793267        -1.085945        -0.647621
 O        -0.510393        -0.758974        -1.084889
 C         0.371424        -0.534179         0.044332
 C         1.386376         0.575776        -0.041305
 C         1.857624        -0.895584        -0.002117
 C        -0.415099        -0.810301         1.355686
 H        -3.422890        -1.736855         1.992690
 H        -1.052963        -3.150905        -0.260821
 H        -2.870348        -2.866782         0.072459
 H        -2.664906        -0.792405        -1.157040
 H         1.418234         1.283163        -0.912439
 H         1.684797         1.152010         0.749803
 H         2.198175        -1.152946        -1.012112
 H         2.484055        -1.173948         0.824663
 H         0.074501        -1.503484         2.094957
 H        -0.705197         0.069046         1.906423
