19
Iteration:  2210
 O        -3.011253        -1.209290         1.535754
 C        -1.741368        -1.333269         0.891103
 C        -1.484832        -2.547875         0.056369
 C        -1.721630        -1.150281        -0.617195
 O        -0.639171        -0.368223        -1.104194
 C         0.268700        -0.377979         0.058346
 C         1.588454         0.360770        -0.045794
 C         1.522815        -1.194792        -0.067821
 C        -0.477261        -0.575204         1.405665
 H        -3.078173        -1.819639         2.319420
 H        -0.560732        -3.068759         0.292646
 H        -2.369432        -3.156745         0.096480
 H        -2.656922        -1.030455        -1.179650
 H         1.883561         0.978440        -0.907280
 H         1.997957         0.803032         0.855112
 H         1.705615        -1.612296        -1.064491
 H         1.868374        -1.815388         0.713078
 H         0.136369        -1.160394         2.187946
 H        -0.799269         0.364780         1.906131
