19
Iteration:   837
 O        -2.913454        -0.793933         1.559547
 C        -1.766191        -1.355799         0.838391
 C        -1.826457        -2.621005        -0.004941
 C        -1.718521        -1.209614        -0.662182
 O        -0.443459        -0.839951        -0.997747
 C         0.343058        -0.588939         0.082924
 C         1.168109         0.709668         0.101516
 C         1.795806        -0.768142        -0.245484
 C        -0.355274        -1.018273         1.448243
 H        -3.154715        -1.008767         2.454700
 H        -1.120447        -3.492651         0.042828
 H        -2.811996        -2.983638        -0.144023
 H        -2.556134        -0.975721        -1.306766
 H         1.242958         1.505601        -0.759688
 H         1.297149         1.153984         1.252133
 H         1.847750        -0.825584        -1.357211
 H         2.482174        -1.348401         0.438847
 H         0.265558        -1.969789         1.731183
 H        -0.278140        -0.278763         2.256234
