19
Iteration:  1974charge 0 multiplicity 1
 O        -2.869240        -0.977392         1.709848
 C        -1.772317        -1.315052         0.863021
 C        -1.819337        -2.525906        -0.055311
 C        -1.822005        -1.164234        -0.744396
 O        -0.475290        -0.769205        -1.087636
 C         0.337360        -0.512434         0.074381
 C         1.338548         0.594128         0.010339
 C         1.731393        -0.950282         0.028192
 C        -0.401700        -0.785053         1.305100
 H        -3.107958        -1.804727         2.194150
 H        -0.932829        -3.027210        -0.301812
 H        -2.708560        -3.168250        -0.036318
 H        -2.636791        -0.807499        -1.283233
 H         1.406483         1.356893        -0.727621
 H         1.593782         0.991563         0.899686
 H         2.013573        -1.283195        -0.913297
 H         2.226621        -1.350892         0.869175
 H         0.164434        -1.601221         1.757481
 H        -0.422195        -0.043095         2.110317
