19
Iteration:  3789charge 0 multiplicity 1
 O        -3.016915        -0.884469         1.533572
 C        -1.794470        -1.268621         0.883677
 C        -1.822055        -2.588136         0.015857
 C        -1.711449        -1.215290        -0.657398
 O        -0.432788        -0.797494        -1.060374
 C         0.329117        -0.501279         0.127624
 C         1.344591         0.573459         0.096973
 C         1.745941        -0.819783        -0.211238
 C        -0.383355        -0.922491         1.435368
 H        -3.142304        -1.439584         2.297752
 H        -0.837463        -3.112745        -0.103354
 H        -2.617543        -3.290807        -0.150552
 H        -2.519837        -0.805619        -1.272549
 H         1.381100         1.267353        -0.812817
 H         1.437308         0.962648         1.125055
 H         2.068028        -1.052748        -1.172351
 H         2.461121        -1.326691         0.485594
 H         0.160252        -1.806173         1.782214
 H        -0.511405        -0.166548         2.258022
