19
Iteration:  1845
 O        -2.980246        -1.153800         1.662801
 C        -1.776756        -1.350088         0.882643
 C        -1.675086        -2.611322        -0.023380
 C        -1.766669        -1.179655        -0.640738
 O        -0.542482        -0.512917        -1.133003
 C         0.319812        -0.403870         0.104324
 C         1.554436         0.442405         0.013100
 C         1.694416        -1.093382        -0.084143
 C        -0.552030        -0.542521         1.351028
 H        -3.036047        -1.906038         2.259671
 H        -0.780016        -3.188852        -0.013393
 H        -2.534012        -3.264830        -0.045044
 H        -2.728902        -0.824883        -1.070814
 H         1.681570         0.791252        -0.943518
 H         2.038925         0.928373         0.882074
 H         2.040044        -1.475229        -0.982792
 H         2.240187        -1.606306         0.722333
 H        -0.011307        -1.016379         2.148759
 H        -0.942179         0.505798         1.630255
