19
Iteration:  2155
 O        -2.891999        -1.301326         1.598452
 C        -1.740795        -1.250769         0.900923
 C        -1.449209        -2.439899         0.004255
 C        -1.712627        -1.107153        -0.602564
 O        -0.508341        -0.384833        -1.019512
 C         0.238183        -0.453068         0.122200
 C         1.452622         0.273708        -0.118006
 C         1.546439        -1.283104        -0.039748
 C        -0.660025        -0.442352         1.343150
 H        -2.984128        -2.126369         2.076671
 H        -0.471369        -2.849009        -0.307912
 H        -2.339846        -3.102729        -0.181846
 H        -2.516105        -0.946193        -1.140307
 H         1.139034         0.839317        -1.123254
 H         1.973632         0.681835         0.704545
 H         1.886502        -1.922856        -0.901696
 H         2.058353        -1.661240         0.843571
 H        -0.192697        -0.711373         2.367116
 H        -1.055743         0.623576         1.382703
