19
Iteration:   902charge 0 multiplicity 1
 O        -2.849376        -0.841154         1.696182
 C        -1.816541        -1.373166         0.927626
 C        -1.897733        -2.519438        -0.030162
 C        -1.726565        -1.180436        -0.697424
 O        -0.389936        -0.882764        -1.090038
 C         0.345276        -0.593472         0.085396
 C         1.140920         0.743285        -0.013193
 C         1.783324        -0.750343        -0.049003
 C        -0.346174        -1.038970         1.319146
 H        -3.197250        -1.646091         2.163751
 H        -1.059626        -3.235179         0.038080
 H        -2.844710        -2.939112        -0.220844
 H        -2.458300        -0.666639        -1.254098
 H         1.153676         1.127755        -1.094367
 H         1.391118         1.355790         0.934682
 H         2.082571        -0.981252        -1.089818
 H         2.277035        -1.058612         0.828857
 H         0.131024        -2.016839         1.617190
 H        -0.245096        -0.397487         2.172566
