19
Iteration:    55charge 0 multiplicity 1
 O        -2.944684        -1.274057         1.545034
 C        -1.659225        -1.334800         0.920433
 C        -1.319021        -2.529042         0.175020
 C        -1.754253        -1.220999        -0.600480
 O        -0.662491        -0.407696        -1.084314
 C         0.210003        -0.368291         0.049668
 C         1.499081         0.334236        -0.058946
 C         1.532710        -1.237810        -0.112407
 C        -0.588273        -0.356506         1.314002
 H        -2.931975        -1.911958         2.285604
 H        -0.337670        -2.894510        -0.008314
 H        -2.033984        -3.253307         0.394791
 H        -2.683247        -1.117684        -1.132652
 H         1.622761         0.814255        -1.037953
 H         1.863617         0.855441         0.821660
 H         1.634943        -1.697273        -1.029360
 H         1.821884        -1.924847         0.717680
 H         0.049792        -0.584627         2.150187
 H        -1.161850         0.595571         1.516030
