19
Iteration:  2132charge 0 multiplicity 1
 O        -3.004989        -1.315530         1.637477
 C        -1.770012        -1.252644         0.875342
 C        -1.527029        -2.502578        -0.032406
 C        -1.788817        -1.158296        -0.696773
 O        -0.629197        -0.502623        -1.059678
 C         0.267806        -0.388547         0.081372
 C         1.664512         0.347174        -0.011147
 C         1.598849        -1.129382        -0.031451
 C        -0.542967        -0.438094         1.361083
 H        -2.904541        -1.968942         2.385104
 H        -0.483963        -2.893049        -0.169913
 H        -2.351957        -3.291286         0.070614
 H        -2.636184        -0.783675        -1.154604
 H         2.051015         0.668575        -1.070254
 H         1.923842         0.940128         0.924506
 H         1.558647        -1.691315        -0.995131
 H         2.027412        -1.935444         0.674937
 H         0.050838        -0.928857         2.169497
 H        -0.739499         0.655892         1.667853
