19
Iteration:  2518charge 0 multiplicity 1
 O        -2.923053        -1.026034         1.648435
 C        -1.833023        -1.318271         0.886198
 C        -1.744957        -2.598439        -0.052578
 C        -1.743394        -1.226771        -0.705507
 O        -0.529391        -0.554730        -1.026170
 C         0.264329        -0.412577         0.138662
 C         1.560339         0.461016        -0.084211
 C         1.734217        -0.920813        -0.071590
 C        -0.511246        -0.799001         1.414439
 H        -3.138219        -1.878368         2.058699
 H        -0.805907        -3.090600         0.152968
 H        -2.691469        -3.149752        -0.339768
 H        -2.735336        -1.058579        -1.334237
 H         1.631262         0.834153        -1.050199
 H         1.790933         1.284520         0.679221
 H         1.837240        -1.490463        -1.010897
 H         2.255332        -1.421709         0.822656
 H         0.148765        -1.511819         1.953506
 H        -0.583697        -0.028187         2.110398
