19
Iteration:  4746
 O        -2.945887        -0.794958         1.658421
 C        -1.912852        -1.327375         0.929186
 C        -1.902870        -2.526390        -0.031393
 C        -1.749466        -1.131422        -0.626809
 O        -0.383809        -1.015074        -1.061154
 C         0.425098        -0.581138         0.024557
 C         1.275890         0.677536         0.035817
 C         1.957344        -0.671926        -0.145909
 C        -0.481847        -1.061098         1.370757
 H        -3.593831        -1.472744         1.855088
 H        -1.028574        -3.114669         0.083609
 H        -2.879695        -2.947560        -0.152539
 H        -2.465957        -0.737284        -1.336859
 H         1.394611         1.178537        -0.886272
 H         1.420948         1.025692         1.139599
 H         2.308617        -0.849249        -1.078458
 H         2.641594        -1.031828         0.583850
 H        -0.211618        -1.978649         1.811534
 H        -0.455622        -0.244093         2.052661
