19
Iteration:  1827charge 0 multiplicity 1
 O        -2.913597        -1.233487         1.581209
 C        -1.739036        -1.273802         0.895844
 C        -1.575167        -2.468195        -0.019628
 C        -1.694443        -1.128135        -0.632055
 O        -0.530489        -0.553483        -0.970395
 C         0.275896        -0.449435         0.079465
 C         1.460349         0.393836        -0.121194
 C         1.539943        -1.150065        -0.020036
 C        -0.495757        -0.506331         1.341059
 H        -2.900072        -2.026685         2.113829
 H        -0.690357        -3.002131        -0.172092
 H        -2.562722        -2.871115        -0.107893
 H        -2.426021        -0.998537        -1.333434
 H         1.518966         1.126268        -0.976375
 H         1.670977         0.755811         0.850743
 H         1.524489        -1.768276        -0.923818
 H         1.924733        -1.706922         0.850761
 H        -0.048858        -0.901990         2.269881
 H        -0.977296         0.382742         1.675841
