19
Iteration:  4072
 O        -2.999701        -0.954132         1.573620
 C        -1.835564        -1.328907         0.838347
 C        -1.746232        -2.612112         0.025023
 C        -1.734806        -1.210539        -0.644190
 O        -0.534248        -0.585620        -1.028585
 C         0.330484        -0.572246         0.037634
 C         1.433526         0.525688         0.065103
 C         1.827990        -0.951420        -0.053628
 C        -0.478306        -0.782553         1.298963
 H        -3.017398        -1.424378         2.407328
 H        -0.798258        -3.250677         0.099877
 H        -2.705232        -3.184635         0.013080
 H        -2.614658        -0.935081        -1.364621
 H         1.512016         1.086144        -0.891344
 H         1.709801         1.199979         1.030299
 H         2.065597        -1.371627        -1.007335
 H         2.302578        -1.536358         0.770459
 H         0.144309        -1.523915         1.857056
 H        -0.440058         0.175716         1.854872
