19
Iteration:    22charge 0 multiplicity 1
 O        -2.911039        -1.062965         1.755747
 C        -1.832900        -1.421981         0.800486
 C        -1.386606        -2.688718         0.152168
 C        -1.692056        -1.321566        -0.693272
 O        -0.671363        -0.353137        -1.118985
 C         0.258444        -0.264770         0.044101
 C         1.587671         0.400781        -0.085245
 C         1.567534        -1.101775        -0.048055
 C        -0.656052        -0.609620         1.288874
 H        -2.859302        -1.768076         2.460622
 H        -0.378204        -2.957676         0.340055
 H        -2.047271        -3.436413        -0.102222
 H        -2.484772        -1.373913        -1.425721
 H         1.749828         0.836179        -1.060565
 H         2.044087         0.972242         0.713526
 H         1.683855        -1.606868        -0.985170
 H         1.824365        -1.611397         0.862581
 H        -0.038213        -1.127012         1.975326
 H        -1.149767         0.245726         1.824501
