19
Iteration:   156charge 0 multiplicity 1
 O        -2.935933        -0.984607         1.619547
 C        -1.734699        -1.350031         0.930817
 C        -1.584949        -2.662607         0.082624
 C        -1.762252        -1.243593        -0.545881
 O        -0.643269        -0.641566        -1.143902
 C         0.305030        -0.501495        -0.039396
 C         1.419510         0.550973         0.081486
 C         1.743206        -0.965301        -0.154894
 C        -0.462647        -0.635697         1.324794
 H        -3.395243        -1.844692         1.706211
 H        -0.558480        -3.170168         0.304766
 H        -2.582917        -3.259746        -0.144100
 H        -2.684202        -1.094235        -1.121958
 H         1.640094         1.317240        -0.680047
 H         1.397841         0.971624         1.103248
 H         2.230662        -1.306511        -1.172348
 H         2.059600        -1.626815         0.630318
 H         0.092532        -1.168705         2.219309
 H        -0.825582         0.307350         1.687573
