19
Iteration:  2121charge 0 multiplicity 1
 O        -3.030783        -1.262137         1.636157
 C        -1.805747        -1.276479         0.903576
 C        -1.574632        -2.551864        -0.026537
 C        -1.805300        -1.273476        -0.631745
 O        -0.638954        -0.429985        -1.087431
 C         0.321920        -0.331166         0.016724
 C         1.702733         0.344243         0.002859
 C         1.621076        -1.132578        -0.030650
 C        -0.503031        -0.484874         1.340680
 H        -2.880630        -1.808064         2.440019
 H        -0.649241        -3.115452        -0.302574
 H        -2.518158        -3.210754        -0.060923
 H        -2.639780        -1.113844        -1.255371
 H         2.007913         0.953611        -0.939627
 H         2.053013         0.911616         0.948257
 H         1.967584        -1.321798        -1.054504
 H         1.872186        -1.750022         0.911544
 H         0.092151        -1.057778         2.081887
 H        -0.896661         0.474487         1.851170
