19
Iteration:  3536
 O        -2.772363        -0.654136         1.632024
 C        -1.789355        -1.295060         0.851417
 C        -2.112668        -2.508855        -0.082152
 C        -1.664823        -1.169252        -0.671332
 O        -0.296665        -1.078119        -1.005928
 C         0.410643        -0.702859         0.139860
 C         0.913483         0.724349         0.058282
 C         1.858742        -0.484625        -0.046849
 C        -0.267362        -1.318573         1.289045
 H        -3.486588        -1.263751         1.895464
 H        -1.423022        -3.380402        -0.057766
 H        -3.174307        -2.699215        -0.110353
 H        -2.334755        -0.476675        -1.245581
 H         0.732682         1.212635        -0.854328
 H         1.172652         1.422377         0.822728
 H         2.050180        -0.725053        -1.025201
 H         2.581599        -0.755423         0.773312
 H         0.061203        -2.390470         1.446202
 H        -0.057251        -0.764874         2.183841
