19
Iteration:   284charge 0 multiplicity 1
 O        -2.807169        -0.954003         1.797743
 C        -1.870692        -1.241019         0.840774
 C        -1.852440        -2.554624         0.034417
 C        -1.715056        -1.317817        -0.763085
 O        -0.445451        -0.931825        -1.086125
 C         0.328314        -0.519053         0.092457
 C         1.321673         0.619850         0.040840
 C         1.842390        -0.709893        -0.155394
 C        -0.529396        -0.819503         1.294763
 H        -3.353580        -1.710394         2.077064
 H        -1.127068        -3.475969         0.149463
 H        -2.938707        -2.907105         0.148978
 H        -2.383145        -0.808584        -1.489610
 H         1.348380         1.373713        -0.765650
 H         1.487268         1.116852         1.068791
 H         2.100047        -0.918009        -1.279364
 H         2.468943        -1.224907         0.569550
 H        -0.036526        -1.523918         1.939301
 H        -0.627840         0.159251         1.881389
