19
Iteration:  4756charge 0 multiplicity 1
 O        -2.914783        -0.756563         1.603437
 C        -1.830373        -1.301362         0.847732
 C        -1.966966        -2.587676        -0.000548
 C        -1.698319        -1.186127        -0.599695
 O        -0.387382        -0.959509        -1.033060
 C         0.396784        -0.613910         0.076481
 C         1.243781         0.673492         0.084296
 C         1.851155        -0.718693        -0.170814
 C        -0.404015        -1.008772         1.361562
 H        -3.410096        -1.547951         1.888717
 H        -1.124893        -3.242171        -0.138012
 H        -2.905276        -3.064228        -0.261353
 H        -2.488230        -0.830847        -1.284619
 H         1.304179         1.486475        -0.613637
 H         1.248460         1.273310         1.051750
 H         2.173637        -0.921296        -1.132359
 H         2.370820        -1.267904         0.602405
 H         0.033470        -1.867183         1.761788
 H        -0.279225        -0.236889         2.114272
