19
Iteration:  1814charge 0 multiplicity 1
 O        -2.915680        -1.261596         1.565867
 C        -1.706026        -1.248993         0.832011
 C        -1.487329        -2.477744        -0.019284
 C        -1.786048        -1.111742        -0.659185
 O        -0.564890        -0.478373        -1.026467
 C         0.267493        -0.407186         0.179614
 C         1.454096         0.344603        -0.136093
 C         1.546057        -1.263711        -0.008044
 C        -0.565995        -0.476268         1.433946
 H        -2.942667        -2.070852         2.131444
 H        -0.560568        -2.912882        -0.071543
 H        -2.247520        -3.175165         0.110885
 H        -2.655441        -0.835849        -1.253608
 H         1.592350         0.609256        -1.125878
 H         1.992792         1.024543         0.544048
 H         1.723623        -1.683268        -0.929335
 H         2.149643        -1.573892         0.854253
 H        -0.017414        -0.983431         2.179171
 H        -0.831570         0.546658         1.755826
