19
Iteration:  4934charge 0 multiplicity 1
 O        -2.836696        -0.758951         1.718618
 C        -1.772442        -1.337024         0.817592
 C        -1.962645        -2.530011         0.036673
 C        -1.723906        -1.167503        -0.646442
 O        -0.403425        -0.925982        -1.085944
 C         0.369389        -0.653419         0.075336
 C         1.121287         0.631279        -0.021049
 C         1.902056        -0.690632        -0.000099
 C        -0.371290        -1.093986         1.330462
 H        -3.613075        -0.644189         1.106331
 H        -1.233719        -3.336487        -0.230177
 H        -3.017847        -2.900906        -0.129960
 H        -2.438914        -0.657434        -1.391664
 H         0.931315         1.051510        -1.036516
 H         1.092791         1.258426         0.909803
 H         2.553264        -0.995780        -0.865047
 H         2.502892        -1.048316         1.000436
 H         0.058348        -1.997521         1.732481
 H        -0.544373        -0.271515         1.982320
