19
Iteration:  3446
 O        -2.681513        -0.666834         1.572585
 C        -1.793343        -1.354088         0.814125
 C        -2.192896        -2.500094         0.065053
 C        -1.610143        -1.175195        -0.607643
 O        -0.360731        -0.979479        -1.120594
 C         0.403972        -0.703755         0.057342
 C         0.965153         0.737978         0.070041
 C         1.909371        -0.476904         0.026544
 C        -0.362176        -1.377240         1.294795
 H        -3.143458        -1.259617         2.158733
 H        -1.397497        -3.246341         0.292062
 H        -3.117118        -2.992654        -0.380409
 H        -2.349728        -0.657170        -1.123437
 H         0.713205         1.378909        -0.851158
 H         0.751814         1.266776         1.014316
 H         2.366848        -0.774852        -1.049287
 H         2.607211        -0.841590         0.773528
 H         0.007733        -2.385958         1.587707
 H        -0.399525        -0.547401         2.001329
