19
Iteration:  1813charge 0 multiplicity 1
 O        -2.916332        -1.261711         1.566000
 C        -1.713208        -1.251591         0.832128
 C        -1.486187        -2.485461        -0.015933
 C        -1.783834        -1.113838        -0.658290
 O        -0.569005        -0.470369        -1.033694
 C         0.268209        -0.414090         0.180966
 C         1.465494         0.340037        -0.133449
 C         1.548654        -1.262078        -0.007150
 C        -0.573423        -0.472501         1.436251
 H        -2.943745        -2.072439         2.135676
 H        -0.502873        -2.886563        -0.091747
 H        -2.260360        -3.196012         0.106882
 H        -2.689111        -0.806055        -1.247027
 H         1.587922         0.593720        -1.128315
 H         2.015644         1.055074         0.510586
 H         1.717507        -1.685899        -0.943346
 H         2.140942        -1.551941         0.859018
 H        -0.015257        -0.977102         2.177067
 H        -0.812945         0.567335         1.791338
