19
Iteration:  3010
 O        -2.972534        -1.355032         1.658712
 C        -1.788560        -1.280750         0.905893
 C        -1.439538        -2.461214        -0.011045
 C        -1.722361        -1.151181        -0.668412
 O        -0.570748        -0.312450        -1.056862
 C         0.239794        -0.361582         0.035548
 C         1.589440         0.245395        -0.130000
 C         1.498200        -1.285947         0.072963
 C        -0.567789        -0.401873         1.299722
 H        -2.828955        -2.175334         2.166733
 H        -0.541339        -3.001682        -0.301560
 H        -2.281483        -3.097349         0.006540
 H        -2.605515        -0.826334        -1.359745
 H         1.707957         0.782192        -0.983346
 H         2.161277         0.634493         0.777481
 H         1.755442        -2.013519        -0.647744
 H         1.840522        -1.500989         1.130977
 H        -0.043011        -0.882716         2.182002
 H        -1.002174         0.544372         1.642245
