19
Iteration:  3517
 O        -2.778182        -0.713226         1.585393
 C        -1.776037        -1.332269         0.851302
 C        -2.269919        -2.446319        -0.132922
 C        -1.658709        -1.154008        -0.602244
 O        -0.317274        -1.115079        -1.052000
 C         0.513530        -0.745810         0.182798
 C         0.935892         0.694700         0.036948
 C         1.946763        -0.416403        -0.153191
 C        -0.262941        -1.284743         1.452338
 H        -3.101463        -1.442154         2.103702
 H        -1.818480        -3.451878        -0.070153
 H        -3.313297        -2.537477        -0.368796
 H        -2.273363        -0.467712        -1.291886
 H         0.501264         1.252988        -0.798098
 H         0.831817         1.246273         0.962679
 H         2.475495        -0.563496        -1.080561
 H         2.493965        -0.524752         0.754782
 H         0.121261        -2.205373         1.803781
 H        -0.327642        -0.437057         2.131398
