19
Iteration:   336
 O        -2.912299        -0.829459         1.576331
 C        -1.763710        -1.413936         0.973035
 C        -1.862964        -2.705108         0.009517
 C        -1.825319        -1.285407        -0.565669
 O        -0.557889        -0.710689        -1.017211
 C         0.400757        -0.491062         0.109031
 C         1.235828         0.646426        -0.200650
 C         1.947294        -0.805107        -0.054989
 C        -0.338681        -0.917574         1.407386
 H        -3.623673        -1.385425         1.230211
 H        -0.987564        -3.151729        -0.184276
 H        -2.679636        -3.369449        -0.089855
 H        -2.675152        -0.754061        -1.092263
 H         1.169005         1.144022        -1.177664
 H         1.342830         1.323135         0.716258
 H         2.352155        -1.288967        -1.010881
 H         2.498888        -0.982749         0.822388
 H         0.173702        -1.756569         1.871126
 H        -0.377655        -0.063940         2.145414
