19
Iteration:  3585charge 0 multiplicity 1
 O        -2.757905        -0.620652         1.610626
 C        -1.757480        -1.393200         0.851527
 C        -2.165620        -2.603313         0.003291
 C        -1.696067        -1.312556        -0.672539
 O        -0.358454        -0.933736        -1.098910
 C         0.458049        -0.617625        -0.013495
 C         1.017164         0.685065         0.204316
 C         1.929591        -0.595749        -0.036664
 C        -0.311346        -1.169558         1.302050
 H        -3.271516        -1.236590         2.138654
 H        -1.547037        -3.488794        -0.256883
 H        -3.253971        -2.795954        -0.162015
 H        -2.532007        -0.918987        -1.198164
 H         0.750836         1.363195        -0.655039
 H         0.726057         1.346220         1.073103
 H         2.321926        -0.522818        -1.085435
 H         2.512646        -0.912255         0.843265
 H         0.223514        -2.044483         1.625845
 H        -0.553795        -0.430158         2.126422
