19
Iteration:   867
 O        -2.901443        -0.825246         1.538223
 C        -1.784182        -1.466158         0.867936
 C        -2.027875        -2.659987         0.113213
 C        -1.814450        -1.192622        -0.650126
 O        -0.441661        -0.843230        -1.083786
 C         0.472333        -0.663868         0.073775
 C         1.284413         0.718548         0.153934
 C         1.890141        -0.605206        -0.255206
 C        -0.395743        -0.991378         1.386784
 H        -3.541337        -1.415644         2.028535
 H        -1.212880        -3.384672         0.057315
 H        -2.999396        -3.112701         0.144202
 H        -2.697233        -0.627550        -1.113674
 H         1.070029         1.590964        -0.437387
 H         1.751944         1.185112         1.106142
 H         2.240889        -0.985057        -1.192442
 H         2.821873        -1.034443         0.301363
 H         0.193928        -1.715730         1.927965
 H        -0.443469        -0.072852         1.919407
