19
Iteration:  4725charge 0 multiplicity 1
 O        -2.956565        -0.875820         1.727213
 C        -1.837175        -1.239304         0.835811
 C        -2.051309        -2.539626        -0.016645
 C        -1.716601        -1.149629        -0.697809
 O        -0.378431        -0.946655        -1.081940
 C         0.452157        -0.644480         0.172889
 C         1.231314         0.644876        -0.054927
 C         1.965275        -0.689359        -0.082110
 C        -0.388550        -0.988467         1.374720
 H        -3.516261        -1.650020         1.522975
 H        -1.182003        -3.120692        -0.153930
 H        -3.040137        -2.951538        -0.160909
 H        -2.466200        -0.638570        -1.260704
 H         0.976061         1.079481        -1.011099
 H         1.387169         1.320719         0.885438
 H         2.346960        -1.176109        -0.897868
 H         2.530497        -0.949225         0.783518
 H         0.005376        -1.925584         1.867260
 H        -0.348961        -0.151350         2.024796
