19
Iteration:  3993
 O        -3.130120        -1.258686         1.638452
 C        -1.855760        -1.309209         0.851704
 C        -1.472985        -2.484681         0.076425
 C        -1.771771        -1.135221        -0.657885
 O        -0.533781        -0.436500        -0.988619
 C         0.292187        -0.379279         0.108659
 C         1.649860         0.291002        -0.120811
 C         1.686330        -1.217011        -0.054080
 C        -0.580142        -0.438383         1.319152
 H        -3.143409        -2.097365         2.092965
 H        -0.453729        -2.745515        -0.031792
 H        -2.183145        -3.286235        -0.123381
 H        -2.497088        -1.238265        -1.343571
 H         1.665538         0.853896        -1.110633
 H         1.995284         0.969161         0.676009
 H         1.709002        -1.703656        -1.082538
 H         2.304837        -1.569362         0.731011
 H        -0.142134        -1.109403         2.114556
 H        -0.828588         0.539251         1.708918
