19
Iteration:   409charge 0 multiplicity 1
 O        -2.889581        -1.017924         1.696531
 C        -1.769493        -1.335347         0.884642
 C        -1.757823        -2.565818         0.116743
 C        -1.809881        -1.181078        -0.591021
 O        -0.503683        -0.862005        -1.118494
 C         0.362461        -0.574947         0.001129
 C         1.312655         0.569429         0.056544
 C         1.898301        -0.836896        -0.185763
 C        -0.508053        -0.633144         1.330926
 H        -3.731308        -1.537993         1.531158
 H        -0.807933        -3.073602        -0.232392
 H        -2.530304        -3.407061         0.280746
 H        -2.693625        -0.902723        -1.205621
 H         1.485870         1.257429        -0.707061
 H         1.291973         0.939156         1.056251
 H         2.098376        -1.027898        -1.304775
 H         2.526047        -1.304361         0.443087
 H        -0.050332        -1.099808         2.301618
 H        -0.841896         0.331728         1.535294
