19
Iteration:  2095charge 0 multiplicity 1
 O        -2.888783        -1.061491         1.554128
 C        -1.771188        -1.383723         0.840821
 C        -1.579370        -2.642012         0.083271
 C        -1.682399        -1.176626        -0.657819
 O        -0.612630        -0.336338        -1.011823
 C         0.285923        -0.506839         0.063063
 C         1.431620         0.381727        -0.001667
 C         1.647691        -1.080038        -0.052412
 C        -0.518902        -0.718198         1.285253
 H        -2.887955        -1.580533         2.395599
 H        -0.652113        -3.172783         0.244901
 H        -2.409672        -3.253481        -0.107378
 H        -2.698789        -0.778807        -1.116945
 H         1.562863         1.002646        -0.830940
 H         1.744183         0.922761         0.906355
 H         1.745608        -1.362594        -1.120357
 H         1.990076        -1.694709         0.791864
 H         0.019079        -1.079382         2.145548
 H        -0.965080         0.286448         1.584708
