19
Iteration:   971
 O        -2.854537        -0.933252         1.567869
 C        -1.746889        -1.388467         0.913245
 C        -2.061631        -2.545173        -0.007614
 C        -1.706365        -1.181360        -0.626630
 O        -0.431282        -0.983537        -1.099430
 C         0.351386        -0.592702         0.110100
 C         1.244805         0.749259         0.083104
 C         1.887630        -0.637472        -0.166598
 C        -0.381653        -0.954489         1.351995
 H        -3.269115        -1.393586         2.302124
 H        -1.251814        -3.278260        -0.084115
 H        -3.186243        -2.679282        -0.041654
 H        -2.597875        -0.588441        -1.068707
 H         1.203343         1.407677        -0.697219
 H         1.506949         1.061576         1.040997
 H         2.142088        -0.905356        -1.127350
 H         2.530888        -1.012074         0.639091
 H         0.134613        -1.833171         1.838664
 H        -0.492711        -0.107264         2.107068
