19
Iteration:   918charge 0 multiplicity 1
 O        -2.832844        -0.837714         1.743583
 C        -1.756535        -1.309183         0.782517
 C        -1.893270        -2.578832        -0.087602
 C        -1.749714        -1.096908        -0.626685
 O        -0.427854        -0.926151        -1.121857
 C         0.269683        -0.529090         0.099066
 C         1.200042         0.683647        -0.096690
 C         1.855689        -0.678633         0.013204
 C        -0.402507        -1.150578         1.368339
 H        -2.944594        -1.540462         2.427379
 H        -0.930096        -3.009520        -0.356509
 H        -2.910859        -3.134769         0.053249
 H        -2.620610        -0.694968        -1.261821
 H         0.991213         1.215183        -0.954713
 H         1.279783         1.261228         0.736714
 H         2.268002        -1.347404        -0.703294
 H         2.358681        -0.846448         1.060015
 H         0.149244        -2.025423         1.760604
 H        -0.558034        -0.332116         2.162312
