19
Iteration:  1763charge 0 multiplicity 1
 O        -2.996987        -1.255472         1.531991
 C        -1.691028        -1.282407         0.862220
 C        -1.458015        -2.607360         0.084706
 C        -1.690571        -1.238457        -0.621708
 O        -0.651440        -0.272573        -1.019546
 C         0.261507        -0.391425         0.104879
 C         1.581362         0.278100        -0.076256
 C         1.520209        -1.239730        -0.074298
 C        -0.543920        -0.428398         1.353991
 H        -2.855038        -1.648580         2.402951
 H        -0.507027        -3.095007         0.078904
 H        -2.308992        -3.250839        -0.171277
 H        -2.545254        -1.197638        -1.182070
 H         1.659423         0.881563        -0.986509
 H         1.983982         0.870585         0.767031
 H         1.596469        -1.615049        -1.061370
 H         1.648651        -1.889796         0.808396
 H         0.009069        -0.843276         2.267305
 H        -0.879557         0.570323         1.573830
