19
Iteration:  4438
 O        -2.994568        -1.040013         1.484941
 C        -1.809806        -1.310450         0.885715
 C        -1.500328        -2.562708         0.102874
 C        -1.743767        -1.272935        -0.626591
 O        -0.579016        -0.400874        -1.090478
 C         0.315578        -0.556105         0.064293
 C         1.459041         0.384368         0.086710
 C         1.714227        -1.135854        -0.177977
 C        -0.575914        -0.597259         1.414624
 H        -2.968888        -1.349781         2.414752
 H        -0.420643        -2.808606         0.195287
 H        -2.184586        -3.410662        -0.025654
 H        -2.651322        -1.188688        -1.112998
 H         1.469803         0.987434        -0.814622
 H         1.707127         0.762313         1.043540
 H         1.787420        -1.358566        -1.285379
 H         2.295241        -1.791723         0.533649
 H        -0.106184        -1.166588         2.251121
 H        -0.878210         0.406999         1.786615
