19
Iteration:  1675charge 0 multiplicity 1
 O        -2.954751        -1.029927         1.599991
 C        -1.782625        -1.369732         0.918390
 C        -1.714104        -2.588988        -0.093668
 C        -1.727354        -1.205342        -0.643533
 O        -0.575487        -0.629508        -1.038474
 C         0.352164        -0.460205         0.106437
 C         1.471865         0.563350        -0.109777
 C         1.663162        -0.995452        -0.006859
 C        -0.438816        -0.699612         1.418741
 H        -3.002096        -1.625708         2.355097
 H        -0.924372        -3.290450        -0.169012
 H        -2.602048        -3.098725        -0.182892
 H        -2.720671        -0.905966        -1.137895
 H         1.469072         0.878462        -1.160873
 H         1.902287         1.150899         0.705012
 H         1.987415        -1.395964        -0.978136
 H         2.117986        -1.464783         0.842766
 H         0.214388        -1.426821         2.013382
 H        -0.666277         0.215477         1.952753
