19
Iteration:  4339charge 0 multiplicity 1
 O        -2.929029        -1.308319         1.633350
 C        -1.771579        -1.280658         0.877410
 C        -1.543196        -2.504527         0.007370
 C        -1.752705        -1.121456        -0.632773
 O        -0.574664        -0.455746        -1.077502
 C         0.326685        -0.339033         0.084468
 C         1.691356         0.362920        -0.042847
 C         1.539314        -1.241274         0.070517
 C        -0.679004        -0.430578         1.225659
 H        -2.986438        -2.050445         2.223357
 H        -0.567471        -2.965231        -0.148604
 H        -2.372056        -3.235799        -0.153750
 H        -2.678597        -0.992710        -1.340333
 H         1.930356         0.644525        -1.082054
 H         2.040442         0.897427         0.773364
 H         1.698793        -1.984173        -0.784974
 H         1.734351        -1.730709         1.096449
 H        -0.210373        -0.801394         2.134838
 H        -1.074760         0.516147         1.611008
