19
Iteration:   157charge 0 multiplicity 1
 O        -2.931103        -0.989303         1.611752
 C        -1.739715        -1.358483         0.933253
 C        -1.591782        -2.656705         0.094463
 C        -1.762086        -1.235398        -0.542985
 O        -0.641878        -0.646093        -1.138642
 C         0.304371        -0.501928        -0.038778
 C         1.421788         0.550492         0.082265
 C         1.747040        -0.962408        -0.160968
 C        -0.467279        -0.638339         1.317130
 H        -3.402139        -1.824839         1.705461
 H        -0.562610        -3.186536         0.302778
 H        -2.580273        -3.221481        -0.128960
 H        -2.666777        -1.098408        -1.134990
 H         1.618944         1.335552        -0.641217
 H         1.410840         0.962637         1.097502
 H         2.239320        -1.294521        -1.185853
 H         2.078544        -1.596145         0.628544
 H         0.074058        -1.169581         2.211725
 H        -0.804924         0.305688         1.660670
