19
Iteration:  4673charge 0 multiplicity 1
 O        -2.880653        -0.778189         1.627846
 C        -1.817861        -1.357486         0.877551
 C        -1.996259        -2.619721        -0.174934
 C        -1.824723        -1.155296        -0.596503
 O        -0.461572        -0.981483        -1.000631
 C         0.388374        -0.607721         0.062677
 C         1.322638         0.720460        -0.013360
 C         1.898522        -0.718355        -0.005452
 C        -0.403602        -0.959811         1.320364
 H        -3.004104        -1.447846         2.323019
 H        -1.137484        -3.245117        -0.252656
 H        -3.009788        -3.003166        -0.154882
 H        -2.559483        -0.753118        -1.145936
 H         1.408664         1.207571        -0.893367
 H         1.416767         1.175798         0.960034
 H         2.457637        -1.036752        -0.857005
 H         2.444015        -1.076513         0.882249
 H         0.253576        -1.775297         1.790606
 H        -0.413666        -0.109795         1.967899
