19
Iteration:  2832charge 0 multiplicity 1
 O        -2.949771        -1.021761         1.642878
 C        -1.804946        -1.240205         0.873560
 C        -1.874491        -2.591179        -0.059155
 C        -1.725932        -1.171014        -0.606873
 O        -0.537818        -0.705024        -1.082563
 C         0.378828        -0.573843         0.039455
 C         1.336071         0.582571        -0.021341
 C         1.869514        -0.952048         0.018860
 C        -0.380555        -0.761962         1.323792
 H        -3.120928        -1.815066         2.193969
 H        -1.005534        -3.191515        -0.371457
 H        -2.943294        -2.972123        -0.283031
 H        -2.578842        -0.758826        -1.002115
 H         1.318274         1.040673        -0.947021
 H         1.453526         1.225329         0.939712
 H         2.352582        -1.246403        -0.897332
 H         2.206172        -1.428530         1.006915
 H         0.165590        -1.496550         1.897885
 H        -0.441419         0.172943         1.977158
