19
Iteration:  3773
 O        -2.960518        -0.856587         1.442348
 C        -1.817286        -1.391141         0.828793
 C        -1.885905        -2.668029        -0.009663
 C        -1.814268        -1.240849        -0.605899
 O        -0.516794        -0.809140        -0.952977
 C         0.387608        -0.489398         0.144152
 C         1.430450         0.696672         0.101325
 C         1.868582        -0.762194        -0.187617
 C        -0.405161        -0.974535         1.382724
 H        -3.010495        -1.145845         2.351333
 H        -1.000855        -3.283070        -0.024767
 H        -2.951978        -2.975060         0.113263
 H        -2.655476        -0.769664        -1.212684
 H         1.372364         1.404223        -0.681221
 H         1.960479         1.169655         0.918038
 H         1.956452        -0.970757        -1.322175
 H         2.355246        -1.434368         0.496570
 H         0.018145        -1.847177         1.929714
 H        -0.390129        -0.135896         2.053699
