19
Iteration:  1067
 O        -2.867656        -0.816696         1.651387
 C        -1.787047        -1.423608         0.852731
 C        -2.022708        -2.608552        -0.017922
 C        -1.692999        -1.165933        -0.598026
 O        -0.434160        -1.005910        -1.134953
 C         0.343846        -0.561788        -0.013413
 C         1.298264         0.785442         0.031219
 C         1.776363        -0.598693        -0.044895
 C        -0.400192        -1.105479         1.350093
 H        -2.645516        -1.059526         2.546033
 H        -1.108671        -3.220914        -0.158316
 H        -3.031856        -2.972490        -0.045312
 H        -2.493022        -0.459535        -1.007085
 H         1.419709         1.334008        -0.920983
 H         1.469636         1.294276         1.039575
 H         2.236524        -0.881935        -0.887803
 H         2.227991        -0.978462         0.860321
 H         0.137120        -1.997683         1.731425
 H        -0.382808        -0.353187         2.154780
