19
Iteration:   323charge 0 multiplicity 1
 O        -2.937265        -0.876516         1.618731
 C        -1.754973        -1.393904         0.915402
 C        -1.786452        -2.577700         0.047391
 C        -1.716927        -1.208738        -0.556440
 O        -0.496229        -0.823306        -1.039678
 C         0.372153        -0.635080         0.052663
 C         1.271510         0.633482        -0.083529
 C         1.849820        -0.723279        -0.163658
 C        -0.443459        -0.900914         1.395314
 H        -3.725103        -1.375911         1.321231
 H        -0.949439        -3.154762         0.078761
 H        -2.727604        -3.086456         0.037920
 H        -2.647921        -0.725777        -0.907901
 H         1.124545         1.114397        -1.051275
 H         1.456277         1.312455         0.725998
 H         2.195518        -1.074558        -1.148013
 H         2.437369        -1.042685         0.624560
 H         0.116697        -1.652649         2.055574
 H        -0.651631        -0.038927         2.017484
