19
Iteration:   710
 O        -2.918356        -0.972871         1.610063
 C        -1.806230        -1.375864         0.864541
 C        -1.811807        -2.628687         0.093228
 C        -1.717325        -1.215902        -0.642989
 O        -0.538905        -0.620741        -1.060359
 C         0.365645        -0.540036         0.127498
 C         1.386141         0.620259        -0.057606
 C         1.819227        -0.831514        -0.141917
 C        -0.434099        -0.918424         1.380845
 H        -3.506089        -1.766805         1.703820
 H        -0.828302        -3.204041         0.104121
 H        -2.836636        -3.030511         0.072121
 H        -2.564133        -0.739199        -1.165174
 H         1.287977         1.060797        -1.000067
 H         1.652094         1.296510         0.708900
 H         1.984773        -1.203607        -1.127837
 H         2.355863        -1.329310         0.756985
 H        -0.013049        -1.546365         2.114422
 H        -0.644258         0.053124         1.856827
