19
Iteration:  2113
 O        -3.004157        -1.203296         1.612323
 C        -1.780618        -1.356682         0.876741
 C        -1.597299        -2.637653         0.024617
 C        -1.790206        -1.183051        -0.592329
 O        -0.646374        -0.390467        -1.085212
 C         0.338062        -0.347461         0.014338
 C         1.653262         0.415513         0.033531
 C         1.622755        -1.148849        -0.075251
 C        -0.528132        -0.544896         1.291553
 H        -2.826709        -1.707440         2.449936
 H        -0.659838        -3.183178         0.016056
 H        -2.553855        -3.136093        -0.131618
 H        -2.557187        -1.204154        -1.277494
 H         1.979366         1.033040        -0.841813
 H         1.954770         0.850352         0.910070
 H         2.140371        -1.728392        -0.845248
 H         1.898865        -1.587940         0.818387
 H         0.060539        -1.093810         2.104772
 H        -0.865748         0.312804         1.780277
