19
Iteration:  2759
 O        -3.005419        -0.986839         1.542500
 C        -1.830438        -1.327443         0.846589
 C        -1.793528        -2.657145         0.116468
 C        -1.748220        -1.178089        -0.655413
 O        -0.506834        -0.537349        -0.963454
 C         0.440234        -0.560562         0.105490
 C         1.435641         0.545177         0.015063
 C         1.836669        -0.942871        -0.215448
 C        -0.501603        -0.826679         1.305025
 H        -2.889011        -1.459716         2.415462
 H        -0.828963        -3.167255         0.155275
 H        -2.791065        -3.100054        -0.238279
 H        -2.611767        -1.052284        -1.145421
 H         1.255640         1.073847        -0.850291
 H         1.746095         1.024919         1.015888
 H         1.932961        -1.347113        -1.231893
 H         2.392850        -1.352231         0.734136
 H        -0.233914        -1.572971         2.139673
 H        -0.654989         0.125937         1.824849
