19
Iteration:  2362
 O        -2.932636        -1.014787         1.520707
 C        -1.750446        -1.306649         0.841183
 C        -1.967080        -2.526476         0.106209
 C        -1.776725        -1.166639        -0.704058
 O        -0.451126        -0.756708        -1.046174
 C         0.360831        -0.517784         0.083326
 C         1.375521         0.655706         0.074035
 C         1.777266        -0.887712        -0.116358
 C        -0.335377        -0.923362         1.389556
 H        -3.073584        -1.486270         2.385062
 H        -1.301943        -3.351440         0.009588
 H        -3.013755        -2.845796        -0.035768
 H        -2.611361        -0.765512        -1.455581
 H         1.430237         1.331257        -0.728840
 H         1.640470         1.162041         1.043503
 H         2.082120        -1.176553        -1.106388
 H         2.253493        -1.419001         0.633776
 H         0.188186        -1.654065         1.953817
 H        -0.471436         0.030733         1.918869
