19
Iteration:  3415
 O        -2.744197        -0.577765         1.578605
 C        -1.763899        -1.370975         0.861508
 C        -2.101316        -2.532479        -0.025752
 C        -1.748405        -1.288462        -0.707727
 O        -0.413046        -1.075281        -1.041715
 C         0.347333        -0.590834         0.066460
 C         1.078729         0.749641         0.213541
 C         1.912206        -0.544477        -0.041291
 C        -0.267678        -1.260814         1.247280
 H        -3.472230        -1.264983         1.692315
 H        -1.227373        -3.177167         0.091989
 H        -3.024158        -3.138951         0.015627
 H        -2.414811        -0.688836        -1.226868
 H         0.819103         1.538666        -0.530902
 H         0.920532         1.173395         1.184079
 H         1.934884        -0.766880        -1.158744
 H         2.581913        -0.885397         0.698647
 H         0.185142        -2.209468         1.482008
 H        -0.070981        -0.663287         2.093554
