19
Iteration:  2537
 O        -3.033729        -1.058370         1.589070
 C        -1.811169        -1.386169         0.906538
 C        -1.630511        -2.613961        -0.011549
 C        -1.764014        -1.152093        -0.567284
 O        -0.600304        -0.488581        -1.025162
 C         0.405502        -0.467672         0.071611
 C         1.500161         0.544278        -0.088294
 C         1.753765        -1.098434        -0.086597
 C        -0.473999        -0.726712         1.358234
 H        -3.322670        -1.872792         2.075487
 H        -0.677100        -3.079772        -0.182284
 H        -2.545232        -3.170925        -0.076597
 H        -2.764032        -0.780806        -1.219869
 H         1.498511         1.091870        -0.977612
 H         1.969030         1.031155         0.827369
 H         2.063868        -1.609485        -0.935433
 H         2.233964        -1.584172         0.734876
 H        -0.043697        -1.276874         2.176200
 H        -0.841679         0.227961         1.864375
