19
Iteration:  2051
 O        -3.100678        -1.002245         1.493279
 C        -1.821247        -1.377860         0.914253
 C        -1.725395        -2.579590         0.086644
 C        -1.725511        -1.151600        -0.533426
 O        -0.458702        -0.603368        -1.034288
 C         0.354543        -0.475756         0.118192
 C         1.523349         0.540539         0.004336
 C         1.734584        -0.954503        -0.236407
 C        -0.481075        -0.864267         1.380373
 H        -3.188946        -1.589953         2.292967
 H        -0.742536        -2.952350         0.018431
 H        -2.422144        -3.334211        -0.084549
 H        -2.713042        -0.888155        -1.011918
 H         1.500011         1.116823        -0.925040
 H         1.856799         1.074653         0.848600
 H         1.755413        -1.144174        -1.339311
 H         2.401091        -1.329990         0.442467
 H         0.060312        -1.593310         1.985017
 H        -0.685239         0.098437         1.922269
