19
Iteration:  3223
 O        -2.888583        -0.769170         1.505282
 C        -1.827807        -1.434391         0.886406
 C        -1.986657        -2.677362        -0.045341
 C        -1.723969        -1.188609        -0.576795
 O        -0.455682        -0.759528        -0.978193
 C         0.432138        -0.610442         0.115665
 C         1.210828         0.657330         0.053309
 C         1.839061        -0.793143        -0.136175
 C        -0.342898        -1.012361         1.356017
 H        -2.931041        -1.286297         2.321779
 H        -1.168503        -3.392357        -0.119229
 H        -3.025680        -2.753196        -0.371228
 H        -2.468580        -1.035603        -1.338894
 H         1.245140         1.330610        -0.774991
 H         1.493525         1.269555         0.920432
 H         2.157386        -0.880247        -1.212940
 H         2.557561        -0.905889         0.591422
 H         0.181606        -1.690411         2.055434
 H        -0.553379        -0.084437         1.959950
