19
Iteration:   772
 O        -2.845541        -1.002630         1.672168
 C        -1.749510        -1.390833         0.885105
 C        -1.990641        -2.588457        -0.019451
 C        -1.751208        -1.149823        -0.607454
 O        -0.483313        -0.874893        -1.127450
 C         0.388208        -0.466542         0.048518
 C         1.318391         0.654106        -0.054497
 C         1.835029        -0.751023        -0.013327
 C        -0.415719        -0.853890         1.326680
 H        -3.308845        -1.802056         1.980606
 H        -1.345189        -3.483020        -0.041543
 H        -3.060050        -2.829203        -0.136373
 H        -2.436378        -0.489178        -1.153192
 H         1.381152         1.275991        -0.964634
 H         1.526883         1.327070         0.947135
 H         2.313098        -1.286070        -0.799569
 H         2.340445        -1.070313         0.974108
 H         0.181720        -1.607307         2.002425
 H        -0.752838        -0.034360         1.985743
