19
Iteration:  3250charge 0 multiplicity 1
 O        -2.911449        -0.747799         1.452850
 C        -1.805165        -1.327228         0.806117
 C        -1.931166        -2.601244         0.061314
 C        -1.771323        -1.187359        -0.598911
 O        -0.475577        -0.868466        -1.136944
 C         0.343850        -0.569959         0.128418
 C         1.290926         0.667784         0.150318
 C         1.806100        -0.701515        -0.159701
 C        -0.271705        -1.112284         1.462792
 H        -3.081363        -1.406503         2.121955
 H        -1.052139        -3.314631         0.156428
 H        -2.902884        -3.157401         0.017530
 H        -2.715887        -0.887965        -1.178533
 H         1.151057         1.383108        -0.724927
 H         1.507089         1.149598         1.151050
 H         2.011366        -0.735264        -1.201814
 H         2.559466        -1.197972         0.623315
 H         0.125930        -2.096859         1.728120
 H        -0.160587        -0.481418         2.340221
