19
Iteration:  1309
 O        -2.623181        -0.706050         1.687071
 C        -1.728896        -1.315823         0.809438
 C        -2.164957        -2.477879        -0.047551
 C        -1.656612        -1.147379        -0.660244
 O        -0.348952        -1.178255        -1.071990
 C         0.381725        -0.715208         0.068969
 C         0.865212         0.699800         0.075226
 C         1.845325        -0.447392        -0.027261
 C        -0.318587        -1.220127         1.305445
 H        -3.421893        -1.295077         1.703716
 H        -1.523577        -3.384803        -0.073162
 H        -3.298267        -2.572295        -0.074410
 H        -2.350896        -0.540216        -1.246566
 H         0.829335         1.221928        -0.821091
 H         0.820223         1.343225         0.907738
 H         2.463085        -0.430393        -0.864768
 H         2.512492        -0.791270         0.781947
 H         0.239458        -2.028431         1.752663
 H        -0.190769        -0.489406         2.106867
