19
Iteration:   756
 O        -2.822978        -1.068004         1.680423
 C        -1.742955        -1.301889         0.850730
 C        -1.932185        -2.498668        -0.018218
 C        -1.773126        -1.100788        -0.678793
 O        -0.380625        -0.925253        -1.035271
 C         0.316528        -0.559871         0.109118
 C         1.311259         0.666336        -0.032699
 C         1.771448        -0.796733        -0.088433
 C        -0.470254        -0.807061         1.396185
 H        -3.349503        -1.861163         1.709308
 H        -1.045763        -3.050865        -0.326961
 H        -2.901119        -2.954393         0.123281
 H        -2.694993        -0.883525        -1.233334
 H         1.364892         1.257396        -0.943023
 H         1.503232         1.172378         0.815329
 H         1.998106        -1.108503        -1.154123
 H         2.442786        -1.193922         0.600883
 H         0.007894        -1.459742         2.046932
 H        -0.640591         0.159932         1.892058
