19
Iteration:   890charge 0 multiplicity 1
 O        -2.858335        -0.881769         1.619786
 C        -1.751746        -1.277192         0.849727
 C        -2.008415        -2.552644         0.013432
 C        -1.681780        -1.260419        -0.592105
 O        -0.448660        -0.854566        -1.046454
 C         0.358563        -0.556917         0.055445
 C         1.184448         0.614234         0.060609
 C         1.857173        -0.660737        -0.132449
 C        -0.369214        -1.024857         1.349621
 H        -3.352922        -1.624460         1.949420
 H        -1.223348        -3.340333         0.027484
 H        -2.969615        -2.883467        -0.196588
 H        -2.537704        -0.869805        -1.128906
 H         1.110599         1.306962        -0.841524
 H         1.273986         1.395767         0.921407
 H         2.279537        -0.875001        -1.128600
 H         2.619974        -1.175351         0.481878
 H         0.185795        -1.902316         1.743142
 H        -0.350859        -0.221150         2.051575
