19
Iteration:   148charge 0 multiplicity 1
 O        -2.957305        -0.971383         1.678031
 C        -1.730115        -1.298785         0.891879
 C        -1.571748        -2.670740         0.011786
 C        -1.746078        -1.329120        -0.592387
 O        -0.640082        -0.592876        -1.158646
 C         0.309887        -0.473430        -0.030688
 C         1.395266         0.532021         0.054686
 C         1.697016        -0.989224        -0.078486
 C        -0.445253        -0.627538         1.370327
 H        -3.376527        -1.832520         1.816720
 H        -0.522319        -3.105209         0.114873
 H        -2.258157        -3.511656        -0.061816
 H        -2.718556        -1.070009        -0.991638
 H         1.732922         0.977148        -0.847867
 H         1.483539         1.030680         1.006216
 H         2.034849        -1.261068        -1.141456
 H         1.995998        -1.673164         0.680680
 H         0.243308        -1.127411         2.086692
 H        -0.782581         0.300421         1.801085
