19
Iteration:  3335
 O        -2.908375        -0.816759         1.585558
 C        -1.815455        -1.390563         0.897111
 C        -2.089577        -2.474819        -0.100403
 C        -1.716366        -1.103831        -0.606806
 O        -0.360970        -1.102543        -1.038834
 C         0.382635        -0.577792         0.071357
 C         1.154367         0.782115        -0.084499
 C         1.844457        -0.623923         0.047698
 C        -0.250845        -1.150864         1.386030
 H        -2.986638        -1.376252         2.423722
 H        -1.221903        -3.021089        -0.489379
 H        -3.108688        -2.737008        -0.376836
 H        -2.537997        -0.430328        -1.032551
 H         1.205523         1.310546        -1.032137
 H         1.364303         1.463233         0.794081
 H         2.169654        -1.082442        -0.837865
 H         2.480286        -1.030422         0.927878
 H         0.201589        -2.103081         1.637084
 H        -0.177254        -0.409260         2.213685
