19
Iteration:  4405
 O        -3.000550        -1.214517         1.505747
 C        -1.769980        -1.382126         0.895089
 C        -1.584475        -2.595998         0.046134
 C        -1.667633        -1.260940        -0.614321
 O        -0.597601        -0.379371        -1.079279
 C         0.311936        -0.303420         0.116099
 C         1.689272         0.347572        -0.059881
 C         1.537552        -1.183607        -0.055319
 C        -0.614849        -0.418017         1.394840
 H        -2.984693        -1.745899         2.354282
 H        -0.609218        -3.127907         0.031040
 H        -2.471948        -3.236693        -0.096937
 H        -2.623781        -1.084471        -1.121951
 H         2.072241         0.828480        -1.004652
 H         1.986241         0.811867         0.818377
 H         1.543144        -1.807606        -1.027408
 H         2.009877        -1.787103         0.780693
 H         0.001497        -0.872956         2.204841
 H        -0.993560         0.501526         1.861820
