19
Iteration:  2172
 O        -2.975274        -1.250952         1.649896
 C        -1.762642        -1.352159         0.855549
 C        -1.436063        -2.519922        -0.080060
 C        -1.696241        -1.159005        -0.692163
 O        -0.649728        -0.317068        -0.972367
 C         0.324036        -0.449921         0.168987
 C         1.556300         0.276281        -0.182165
 C         1.560334        -1.238801        -0.002100
 C        -0.567121        -0.380610         1.399498
 H        -3.152002        -2.129355         1.983953
 H        -0.540909        -3.119283         0.128771
 H        -2.252787        -3.261035        -0.132161
 H        -2.630372        -0.961678        -1.380590
 H         1.687430         0.500706        -1.223369
 H         1.997331         0.922375         0.663949
 H         1.518063        -1.716415        -0.978010
 H         1.962874        -1.664522         0.993865
 H        -0.058749        -0.758702         2.230661
 H        -1.089773         0.585414         1.567589
