19
Iteration:  1948
 O        -2.981265        -1.019502         1.575880
 C        -1.812290        -1.337888         0.905625
 C        -1.924222        -2.576453         0.048089
 C        -1.669522        -1.162445        -0.599713
 O        -0.534447        -0.614042        -1.062348
 C         0.407741        -0.622306         0.057795
 C         1.402897         0.516771        -0.038919
 C         1.890375        -0.834262        -0.088704
 C        -0.491587        -0.842549         1.360850
 H        -3.022405        -1.834715         2.120419
 H        -1.092359        -3.404334         0.137376
 H        -2.959684        -2.845510        -0.331700
 H        -2.689406        -0.863263        -1.019648
 H         1.422386         1.114304        -0.986362
 H         1.751595         1.276766         0.816855
 H         2.446123        -0.849750        -1.107619
 H         2.558636        -1.428280         0.634743
 H         0.036087        -1.400665         2.222754
 H        -0.656857         0.090056         1.856209
