19
Iteration:  3689charge 0 multiplicity 1
 O        -2.875759        -0.868575         1.701613
 C        -1.798724        -1.302602         0.845512
 C        -2.050047        -2.506111        -0.085322
 C        -1.690642        -1.204006        -0.647175
 O        -0.404581        -0.969777        -1.042537
 C         0.397029        -0.591159         0.029399
 C         1.236381         0.726685         0.020123
 C         1.860795        -0.692540         0.027210
 C        -0.349823        -1.019741         1.315619
 H        -3.384730        -1.669228         2.008499
 H        -1.463502        -3.396859        -0.251819
 H        -3.071531        -2.775550        -0.354743
 H        -2.597582        -0.782285        -1.296175
 H         1.075726         1.212871        -0.934261
 H         1.093623         1.248545         0.972456
 H         2.361830        -0.869574        -0.982822
 H         2.474211        -1.081958         0.783247
 H         0.129502        -1.867318         1.861644
 H        -0.195139        -0.126318         1.890868
