19
Iteration:  4037
 O        -2.881899        -1.046027         1.590900
 C        -1.750233        -1.339459         0.894749
 C        -1.689329        -2.641839        -0.133987
 C        -1.768682        -1.153601        -0.623339
 O        -0.541981        -0.606778        -1.048517
 C         0.270943        -0.444708         0.084335
 C         1.444115         0.419454        -0.031208
 C         1.717271        -1.061736         0.076701
 C        -0.534587        -0.561070         1.310777
 H        -2.901016        -1.726233         2.253184
 H        -0.814289        -3.289463        -0.311931
 H        -2.624155        -3.215499        -0.010598
 H        -2.600928        -0.619257        -1.088124
 H         1.647133         0.902553        -0.961306
 H         1.727906         1.111311         0.898340
 H         1.935679        -1.555144        -0.894796
 H         1.978747        -1.572430         0.997173
 H         0.185833        -1.140758         1.960709
 H        -0.841312         0.357595         1.840701
