19
Iteration:  3324
 O        -2.831852        -0.818666         1.583262
 C        -1.742524        -1.344306         0.848005
 C        -2.140666        -2.596723        -0.151777
 C        -1.710653        -1.080627        -0.549857
 O        -0.397635        -1.059579        -1.038430
 C         0.372173        -0.501763         0.117999
 C         1.134802         0.700706        -0.032861
 C         1.872013        -0.681306         0.001656
 C        -0.326908        -1.045997         1.360070
 H        -2.944544        -1.398421         2.361732
 H        -1.442883        -3.462122        -0.248676
 H        -3.146552        -2.999608        -0.327491
 H        -2.315481        -0.359894        -1.212228
 H         1.177147         1.152146        -1.019505
 H         1.245605         1.340022         0.885711
 H         2.352894        -0.995465        -0.859059
 H         2.420360        -0.769180         1.036762
 H         0.208480        -1.966842         1.527746
 H        -0.191355        -0.485254         2.318290
