19
Iteration:  3924
 O        -3.050037        -1.176624         1.546068
 C        -1.801329        -1.306458         0.884609
 C        -1.345074        -2.624166         0.062841
 C        -1.694207        -1.246437        -0.565846
 O        -0.651957        -0.344551        -1.044408
 C         0.244409        -0.319867         0.076887
 C         1.650787         0.294386        -0.004228
 C         1.559563        -1.220917        -0.136214
 C        -0.605537        -0.510794         1.345566
 H        -3.090685        -1.291159         2.503887
 H        -0.369680        -3.192421        -0.027868
 H        -2.216595        -3.209588        -0.251294
 H        -2.560204        -1.134501        -1.386038
 H         1.706506         0.764842        -0.930409
 H         2.073880         0.882018         0.848025
 H         1.739356        -1.572034        -1.134759
 H         1.919613        -1.741168         0.814314
 H         0.065474        -1.001803         2.091277
 H        -0.962026         0.461877         1.782800
