19
Iteration:  4546
 O        -2.942086        -0.990679         1.676360
 C        -1.868780        -1.220665         0.862922
 C        -1.851993        -2.401924        -0.018858
 C        -1.740189        -1.134416        -0.684164
 O        -0.417719        -0.868916        -1.136951
 C         0.398150        -0.616007         0.053835
 C         1.277505         0.567954        -0.008640
 C         1.860845        -0.840715        -0.027499
 C        -0.488817        -0.901072         1.354309
 H        -2.888173        -1.585076         2.480190
 H        -0.930399        -2.998189        -0.095723
 H        -2.697326        -3.113361        -0.048415
 H        -2.467694        -0.774727        -1.283364
 H         1.144294         1.100483        -0.856237
 H         1.549494         1.098327         0.894665
 H         2.317821        -1.358982        -0.889846
 H         2.379272        -1.027005         0.991482
 H        -0.095767        -1.640563         2.048250
 H        -0.410286         0.020635         2.039191
