19
Iteration:  2769charge 0 multiplicity 1
 O        -3.027025        -0.960265         1.607867
 C        -1.882085        -1.380010         0.848413
 C        -1.803998        -2.556859         0.040757
 C        -1.691369        -1.278746        -0.649277
 O        -0.518154        -0.537375        -1.045441
 C         0.422613        -0.565144         0.161563
 C         1.428304         0.528616        -0.059262
 C         1.862656        -0.913381        -0.188805
 C        -0.509008        -0.842072         1.424397
 H        -3.046427        -1.479740         2.458813
 H        -1.012904        -3.321074         0.007419
 H        -2.742520        -3.124573        -0.306703
 H        -2.360023        -0.911488        -1.270568
 H         1.407623         1.223887        -0.824181
 H         1.774541         1.043087         0.919225
 H         2.068736        -1.209951        -1.231188
 H         2.643522        -1.394115         0.566730
 H        -0.000560        -1.526609         2.202582
 H        -0.752780         0.167028         1.845968
