19
Iteration:  3607charge 0 multiplicity 1
 O        -2.837469        -0.743535         1.530241
 C        -1.770902        -1.306242         0.830041
 C        -2.065726        -2.532767         0.030457
 C        -1.683360        -1.167023        -0.660943
 O        -0.387599        -0.982592        -1.088530
 C         0.391272        -0.716206         0.123533
 C         1.103812         0.681340         0.135295
 C         1.862861        -0.501844        -0.081796
 C        -0.349706        -1.232643         1.297327
 H        -2.854115        -1.295289         2.352277
 H        -1.299553        -3.329338         0.072686
 H        -3.145495        -2.804982        -0.047841
 H        -2.557218        -0.834249        -1.121333
 H         1.091312         1.410848        -0.694502
 H         1.392450         1.350834         1.007614
 H         2.157268        -0.834330        -1.076075
 H         2.459496        -0.796171         0.836870
 H        -0.036269        -2.151692         1.768085
 H        -0.272005        -0.389361         2.041012
