19
Iteration:  3714charge 0 multiplicity 1
 O        -2.815257        -0.843006         1.654714
 C        -1.804920        -1.250922         0.833177
 C        -1.926348        -2.522617         0.015550
 C        -1.766285        -1.118220        -0.679325
 O        -0.381344        -0.964436        -1.152029
 C         0.270536        -0.542983         0.060374
 C         1.197719         0.611272         0.024503
 C         1.850647        -0.682968         0.041826
 C        -0.441266        -1.075332         1.331957
 H        -3.177629        -1.642492         2.140676
 H        -0.939090        -3.016999        -0.071860
 H        -2.603104        -3.343922        -0.135843
 H        -2.574417        -0.588354        -1.159853
 H         1.274007         1.278262        -0.853345
 H         1.386145         0.999818         1.089372
 H         2.105116        -1.018285        -0.890722
 H         2.570231        -1.090800         0.824893
 H         0.022897        -1.989117         1.663529
 H        -0.291220        -0.278228         2.110458
