19
Iteration:  4830
 O        -2.934426        -0.741316         1.590532
 C        -1.822998        -1.247100         0.812269
 C        -1.920814        -2.554121         0.086210
 C        -1.719758        -1.193809        -0.646517
 O        -0.399073        -0.930109        -1.099123
 C         0.378147        -0.602467         0.085177
 C         1.236001         0.665076         0.001478
 C         1.872354        -0.703771        -0.070986
 C        -0.426479        -1.159128         1.353589
 H        -2.891349        -1.348194         2.386984
 H        -1.091415        -3.254255        -0.022852
 H        -2.864260        -3.041168        -0.180082
 H        -2.543814        -0.718060        -1.274370
 H         1.175177         1.398838        -0.754176
 H         1.266649         1.320501         0.945352
 H         2.219056        -0.972442        -1.019772
 H         2.371358        -1.014973         0.888292
 H        -0.067310        -2.169301         1.710151
 H        -0.206400        -0.505424         2.298277
