19
Iteration:  4224
 O        -2.942526        -0.979655         1.522941
 C        -1.689982        -1.332164         0.853423
 C        -1.815286        -2.611470         0.005715
 C        -1.749906        -1.235298        -0.638216
 O        -0.523346        -0.645949        -1.063967
 C         0.330462        -0.547434         0.183674
 C         1.427330         0.536977         0.020247
 C         1.775771        -0.951638        -0.083567
 C        -0.456355        -0.723807         1.381604
 H        -3.242200        -1.655816         2.123126
 H        -1.144485        -3.463984        -0.170222
 H        -2.905950        -2.876968        -0.031572
 H        -2.520404        -0.642447        -1.175554
 H         1.283821         1.058430        -1.060406
 H         1.565744         1.120763         0.898846
 H         2.116537        -1.327785        -1.052451
 H         2.419118        -1.274971         0.713128
 H        -0.002785        -1.351921         2.203882
 H        -0.788522         0.211229         1.832506
