19
Iteration:  4605charge 0 multiplicity 1
 O        -2.897923        -0.641962         1.502795
 C        -1.841186        -1.424052         0.879240
 C        -1.871168        -2.755137        -0.095342
 C        -1.772432        -1.240757        -0.565499
 O        -0.524220        -0.810129        -1.002664
 C         0.359769        -0.621197         0.141142
 C         1.357670         0.673405         0.086864
 C         1.854938        -0.745198        -0.173403
 C        -0.343226        -0.993397         1.405370
 H        -3.516703        -1.042579         2.107740
 H        -0.883073        -3.211543        -0.024431
 H        -2.772026        -3.330223        -0.051213
 H        -2.669152        -0.739631        -1.142266
 H         1.377883         1.300845        -0.912204
 H         1.464853         1.233148         1.038529
 H         2.146155        -0.901794        -1.203722
 H         2.574084        -1.193818         0.416411
 H        -0.134597        -1.996902         1.877756
 H        -0.575163        -0.197501         2.051751
