19
Iteration:  2446
 O        -2.972776        -0.968891         1.540250
 C        -1.812286        -1.320913         0.913039
 C        -1.953869        -2.634019         0.017215
 C        -1.755472        -1.175507        -0.613484
 O        -0.452960        -0.762641        -1.075770
 C         0.373972        -0.507801         0.053258
 C         1.461927         0.598158         0.081168
 C         1.808151        -0.780938        -0.150544
 C        -0.391020        -0.895708         1.355213
 H        -3.022292        -1.398821         2.389529
 H        -0.998030        -3.114913         0.011482
 H        -2.981666        -3.101856        -0.137172
 H        -2.500262        -0.743035        -1.100719
 H         1.287648         1.248992        -0.779303
 H         1.721213         1.090069         1.061224
 H         2.041952        -1.077699        -1.193547
 H         2.078649        -1.494573         0.652926
 H         0.114485        -1.666539         1.981936
 H        -0.517949        -0.028499         2.106083
