19
Iteration:  4590
 O        -2.898602        -0.687606         1.523765
 C        -1.796602        -1.448817         0.893781
 C        -1.920600        -2.697095        -0.012196
 C        -1.765157        -1.249725        -0.573145
 O        -0.514885        -0.795624        -1.067219
 C         0.389085        -0.526857         0.078414
 C         1.383152         0.669379         0.038232
 C         1.859785        -0.747352        -0.118592
 C        -0.420773        -1.051331         1.385905
 H        -3.446972        -1.412415         1.941819
 H        -1.104912        -3.428833        -0.084523
 H        -2.917224        -3.141766        -0.270344
 H        -2.625233        -0.740666        -0.971831
 H         1.233034         1.444888        -0.642863
 H         1.748694         1.033371         1.011416
 H         2.129750        -1.252360        -1.075207
 H         2.325078        -1.083407         0.863273
 H         0.325410        -1.594493         1.954178
 H        -0.608390        -0.059891         1.957120
