19
Iteration:  3175
 O        -2.972586        -1.008700         1.655550
 C        -1.847502        -1.224471         0.843860
 C        -1.877239        -2.566667        -0.062964
 C        -1.715987        -1.080295        -0.617338
 O        -0.451643        -0.860136        -1.079552
 C         0.359417        -0.543680         0.021406
 C         1.320971         0.590236         0.002529
 C         1.775302        -0.821734        -0.028099
 C        -0.272251        -0.857017         1.366732
 H        -3.084138        -1.902530         2.103332
 H        -0.940811        -3.032027         0.112975
 H        -2.855655        -2.986556        -0.104371
 H        -2.604047        -0.712452        -1.103171
 H         1.414970         1.142117        -0.965146
 H         1.324007         1.362972         0.716123
 H         2.088773        -1.310578        -0.921904
 H         1.940324        -1.361452         0.912691
 H         0.136843        -1.756306         1.911617
 H        -0.355206        -0.089907         2.106097
