19
Iteration:   129charge 0 multiplicity 1
 O        -2.852655        -1.024897         1.682398
 C        -1.781990        -1.372244         0.855518
 C        -1.442208        -2.599688         0.054407
 C        -1.775562        -1.263105        -0.689536
 O        -0.617995        -0.524351        -1.052819
 C         0.229035        -0.392335         0.063829
 C         1.464838         0.465506        -0.122282
 C         1.583404        -1.061120         0.016545
 C        -0.542576        -0.645666         1.309079
 H        -3.182953        -1.821040         2.168527
 H        -0.460077        -2.975030         0.055401
 H        -2.193957        -3.262428        -0.046560
 H        -2.527999        -1.203739        -1.471858
 H         1.494053         0.881851        -1.126726
 H         1.738379         1.103310         0.708136
 H         1.925884        -1.655420        -0.759535
 H         1.989971        -1.424362         0.984537
 H        -0.059919        -1.301578         1.948264
 H        -0.828862         0.288413         1.917131
