19
Iteration:  1014charge 0 multiplicity 1
 O        -2.863345        -0.735556         1.602333
 C        -1.807582        -1.392620         0.873803
 C        -1.847084        -2.531429         0.049437
 C        -1.683691        -1.198369        -0.599236
 O        -0.429566        -0.829470        -1.128985
 C         0.418183        -0.616135         0.082042
 C         1.103626         0.673136         0.075261
 C         1.834645        -0.676173        -0.199200
 C        -0.396725        -1.171245         1.416772
 H        -3.434255        -1.375639         2.013364
 H        -0.984975        -3.213124         0.195202
 H        -2.856417        -2.888506        -0.243211
 H        -2.483325        -0.996001        -1.390823
 H         0.751138         1.206367        -0.765353
 H         1.423597         1.000971         1.048331
 H         1.988367        -1.021278        -1.121659
 H         2.494649        -0.944918         0.604442
 H         0.022228        -2.095274         1.898258
 H        -0.494497        -0.265704         2.100557
