19
Iteration:   149
 O        -2.957681        -0.972260         1.671577
 C        -1.727114        -1.302678         0.897189
 C        -1.572809        -2.677925         0.018349
 C        -1.749994        -1.317473        -0.584761
 O        -0.641565        -0.600047        -1.159569
 C         0.310968        -0.479603        -0.033873
 C         1.398577         0.538266         0.060998
 C         1.706169        -0.985870        -0.094964
 C        -0.442784        -0.631006         1.370033
 H        -3.365039        -1.826741         1.789654
 H        -0.569790        -3.097752         0.149493
 H        -2.264198        -3.444433        -0.077327
 H        -2.718962        -1.072600        -1.000815
 H         1.725095         1.021729        -0.832466
 H         1.454770         1.013112         1.021607
 H         2.049065        -1.264147        -1.097803
 H         1.998066        -1.691306         0.676150
 H         0.199933        -1.106300         2.078927
 H        -0.814234         0.317109         1.803395
