19
Iteration:  3174charge 0 multiplicity 1
 O        -2.977275        -1.009723         1.655254
 C        -1.841713        -1.227175         0.845979
 C        -1.878349        -2.559880        -0.063950
 C        -1.719862        -1.093921        -0.614398
 O        -0.452750        -0.856318        -1.083410
 C         0.360725        -0.541154         0.024585
 C         1.324011         0.591595         0.007841
 C         1.779477        -0.823381        -0.028527
 C        -0.275105        -0.851129         1.371422
 H        -3.065403        -1.912580         2.065395
 H        -0.969493        -3.024249         0.096548
 H        -2.845523        -2.997451        -0.089025
 H        -2.593985        -0.690297        -1.087637
 H         1.433665         1.114594        -0.986920
 H         1.299481         1.333021         0.695402
 H         2.105650        -1.327426        -0.937698
 H         1.921397        -1.349749         0.879435
 H         0.138927        -1.737220         1.887429
 H        -0.344777        -0.082854         2.110769
