19
Iteration:  4250charge 0 multiplicity 1
 O        -3.070241        -0.974337         1.462112
 C        -1.808793        -1.327988         0.863332
 C        -1.705409        -2.629345         0.088140
 C        -1.680960        -1.198408        -0.568695
 O        -0.516278        -0.570536        -0.960179
 C         0.302196        -0.447123         0.143472
 C         1.527036         0.537663        -0.090540
 C         1.747362        -0.968886        -0.164515
 C        -0.468767        -0.841645         1.389994
 H        -3.427426        -1.689405         1.975976
 H        -0.843062        -3.234565         0.353044
 H        -2.562033        -3.231802        -0.097725
 H        -2.396979        -0.897969        -1.304602
 H         1.615564         1.022419        -0.984234
 H         1.944612         0.974477         0.861172
 H         1.752000        -1.418845        -1.144947
 H         2.277039        -1.414619         0.708079
 H         0.039880        -1.529351         2.024146
 H        -0.783624         0.064563         1.943594
