19
Iteration:   959
 O        -2.928678        -0.935615         1.586789
 C        -1.737780        -1.426891         0.915463
 C        -2.098137        -2.542179        -0.013190
 C        -1.714711        -1.204820        -0.573919
 O        -0.369648        -0.898140        -1.130924
 C         0.412958        -0.538090         0.017139
 C         1.202085         0.667750         0.008486
 C         1.868261        -0.649604        -0.067505
 C        -0.335980        -0.981931         1.362940
 H        -2.793159        -1.459424         2.411067
 H        -1.693038        -3.497010        -0.179743
 H        -3.215139        -2.749968        -0.064326
 H        -2.437011        -0.426198        -0.894338
 H         1.135796         1.405832        -0.786944
 H         1.275075         1.228083         0.926218
 H         2.283121        -0.990667        -0.947129
 H         2.443083        -0.884563         0.766013
 H         0.267959        -1.707451         1.980057
 H        -0.460182        -0.071029         1.995182
