19
Iteration:  2758
 O        -3.001275        -0.989965         1.536821
 C        -1.827328        -1.316526         0.843120
 C        -1.788771        -2.667247         0.115629
 C        -1.754203        -1.167551        -0.649833
 O        -0.506760        -0.539638        -0.958275
 C         0.428330        -0.561520         0.101497
 C         1.436673         0.544340         0.022755
 C         1.831669        -0.943214        -0.215690
 C        -0.498082        -0.826700         1.296099
 H        -2.894532        -1.449934         2.406854
 H        -0.807801        -3.172047         0.180156
 H        -2.800433        -3.111944        -0.206914
 H        -2.593440        -1.055363        -1.138072
 H         1.248650         1.070505        -0.843014
 H         1.755174         1.041320         1.014016
 H         1.948472        -1.374130        -1.230033
 H         2.386753        -1.373700         0.727147
 H        -0.208042        -1.567118         2.126571
 H        -0.659209         0.141893         1.840618
