19
Iteration:  2291charge 0 multiplicity 1
 O        -2.918773        -1.044201         1.498457
 C        -1.726556        -1.293601         0.852095
 C        -1.817026        -2.546759         0.117061
 C        -1.753881        -1.161161        -0.626700
 O        -0.571596        -0.559008        -1.100773
 C         0.327911        -0.456437         0.098564
 C         1.394058         0.540368        -0.029859
 C         1.728604        -1.027613        -0.032635
 C        -0.360903        -0.850348         1.415911
 H        -3.155230        -1.841419         2.048260
 H        -0.921710        -3.190232        -0.007334
 H        -2.799372        -3.073939        -0.065244
 H        -2.649009        -0.928251        -1.241924
 H         1.437722         1.164410        -1.031346
 H         1.718422         1.051116         0.841621
 H         2.043232        -1.438860        -1.065059
 H         2.263132        -1.402516         0.915921
 H         0.208476        -1.706733         1.906591
 H        -0.620515        -0.018102         2.099999
