19
Iteration:  1935
 O        -3.081016        -0.958591         1.576634
 C        -1.843799        -1.434145         0.917389
 C        -1.857775        -2.617536        -0.028648
 C        -1.757064        -1.217158        -0.568238
 O        -0.491047        -0.590669        -0.991148
 C         0.442571        -0.569519         0.099365
 C         1.413447         0.581011        -0.036835
 C         1.944457        -0.885015        -0.187295
 C        -0.411713        -0.810968         1.389808
 H        -3.438817        -1.537187         2.276730
 H        -1.034521        -3.317909        -0.084771
 H        -2.815490        -3.083633        -0.210472
 H        -2.521854        -0.764104        -1.211184
 H         1.334693         1.149136        -1.044235
 H         1.604580         1.110554         0.909953
 H         2.078104        -1.320575        -1.248701
 H         2.534195        -1.279373         0.622898
 H         0.116507        -1.494001         2.055675
 H        -0.678924         0.176296         1.843721
