19
Iteration:  3079charge 0 multiplicity 1
 O        -3.107775        -1.115463         1.464967
 C        -1.728856        -1.314157         0.936843
 C        -1.463865        -2.570232         0.127399
 C        -1.782793        -1.181377        -0.624366
 O        -0.667749        -0.385345        -1.020168
 C         0.298745        -0.459570         0.051694
 C         1.545535         0.367593         0.024219
 C         1.663796        -1.147805        -0.146295
 C        -0.450756        -0.648898         1.356642
 H        -3.195219        -1.514490         2.384045
 H        -0.446330        -2.974057        -0.023922
 H        -2.277937        -3.317514         0.170661
 H        -2.616282        -1.103969        -1.240065
 H         1.849674         0.911656        -0.965825
 H         1.750833         0.977004         0.864645
 H         1.859238        -1.360382        -1.222394
 H         2.086223        -1.770176         0.629263
 H         0.200954        -1.288023         2.033137
 H        -0.610524         0.323345         1.837948
