19
Iteration:  3142charge 0 multiplicity 1
 O        -2.886716        -0.976106         1.603767
 C        -1.824836        -1.405197         0.798161
 C        -1.852283        -2.636240         0.005285
 C        -1.774833        -1.081405        -0.559980
 O        -0.520604        -0.691013        -1.038453
 C         0.382312        -0.581316         0.130394
 C         1.436012         0.564654        -0.030222
 C         1.843593        -0.840453        -0.109179
 C        -0.480498        -0.785201         1.341400
 H        -3.179665        -1.814669         2.023531
 H        -1.059796        -3.284635         0.136685
 H        -2.762578        -3.149022        -0.180091
 H        -2.534932        -0.800018        -1.216965
 H         1.314612         1.105569        -0.997430
 H         1.602028         1.017237         0.855641
 H         2.107420        -1.526028        -0.916495
 H         2.267654        -1.170308         0.804000
 H         0.027892        -1.295582         2.195776
 H        -0.828161         0.185206         1.640601
