19
Iteration:  4018charge 0 multiplicity 1
 O        -2.973740        -1.226083         1.590173
 C        -1.737919        -1.278807         0.836568
 C        -1.681663        -2.444851         0.009681
 C        -1.712393        -1.151414        -0.675589
 O        -0.540572        -0.542286        -1.057592
 C         0.300826        -0.490152         0.091114
 C         1.514934         0.450783        -0.085891
 C         1.646906        -1.177148         0.011051
 C        -0.532846        -0.554395         1.426885
 H        -2.834556        -1.931280         2.248391
 H        -0.746192        -3.087706        -0.058948
 H        -2.580523        -3.072974        -0.085962
 H        -2.700050        -0.992250        -1.277923
 H         1.691779         0.838475        -1.070386
 H         1.900982         1.246794         0.750708
 H         1.897179        -1.706424        -0.875888
 H         2.078709        -1.426497         0.992426
 H        -0.095656        -0.935313         2.358795
 H        -0.773658         0.521988         1.431248
