19
Iteration:  1026charge 0 multiplicity 1
 O        -2.831060        -0.765101         1.540302
 C        -1.771083        -1.338595         0.871665
 C        -1.969285        -2.649361         0.116350
 C        -1.683480        -1.198383        -0.623519
 O        -0.420538        -0.736962        -1.087280
 C         0.347246        -0.660758         0.101101
 C         1.137500         0.666969         0.023646
 C         1.858718        -0.659785        -0.147382
 C        -0.352820        -1.178268         1.346121
 H        -3.316505        -1.446080         2.072372
 H        -1.255122        -3.546604         0.156482
 H        -2.979010        -3.008517        -0.111643
 H        -2.623102        -0.766679        -1.109723
 H         0.969711         1.290373        -0.782130
 H         1.166359         1.318514         0.850773
 H         2.326369        -0.844681        -1.065547
 H         2.470544        -1.037294         0.690878
 H         0.083165        -1.989437         1.986804
 H        -0.421362        -0.306803         2.103349
