19
Iteration:  4511
 O        -2.901901        -0.966806         1.534635
 C        -1.767879        -1.369942         0.903598
 C        -1.964981        -2.609230        -0.101303
 C        -1.758333        -1.228018        -0.610441
 O        -0.488589        -0.731763        -1.013893
 C         0.381878        -0.501155         0.131531
 C         1.416799         0.624685        -0.048314
 C         1.809253        -0.912927        -0.020519
 C        -0.417972        -0.788352         1.387557
 H        -3.112052        -1.643974         2.236344
 H        -1.136474        -3.308879        -0.295385
 H        -2.992807        -2.944631        -0.037811
 H        -2.573276        -0.678868        -1.110421
 H         1.263910         1.125371        -1.042283
 H         1.741453         1.214367         0.752436
 H         2.047254        -1.463866        -0.957414
 H         2.281285        -1.245684         0.937343
 H         0.171879        -1.330236         2.103442
 H        -0.637983         0.279055         1.677059
