19
Iteration:  3434charge 0 multiplicity 1
 O        -2.733161        -0.611145         1.571323
 C        -1.741882        -1.318542         0.841176
 C        -2.132880        -2.601376         0.084323
 C        -1.707461        -1.225802        -0.646714
 O        -0.346474        -0.956543        -1.129207
 C         0.419297        -0.680151         0.042826
 C         0.944070         0.708643         0.154435
 C         1.877649        -0.507011        -0.041719
 C        -0.298122        -1.307330         1.309589
 H        -3.323943        -1.347131         1.875717
 H        -1.530244        -3.544060         0.017096
 H        -3.203356        -2.608978        -0.325483
 H        -2.500593        -0.813934        -1.272214
 H         0.963335         1.292823        -0.811982
 H         1.012559         1.334578         1.081120
 H         2.513364        -0.644502        -1.027683
 H         2.289657        -0.834886         0.905938
 H         0.048308        -2.352752         1.568899
 H        -0.121463        -0.808749         2.286782
