19
Iteration:  1699charge 0 multiplicity 1
 O        -2.941424        -1.128445         1.545490
 C        -1.814866        -1.361246         0.851217
 C        -1.682584        -2.610792         0.166121
 C        -1.792104        -1.192102        -0.662093
 O        -0.587370        -0.361491        -1.006140
 C         0.313549        -0.462327         0.041290
 C         1.522840         0.394934        -0.101984
 C         1.827143        -1.031064        -0.056675
 C        -0.538148        -0.666070         1.327265
 H        -3.015858        -1.875012         2.190856
 H        -0.839570        -3.261152         0.157603
 H        -2.588901        -3.264674         0.081689
 H        -2.657803        -0.927439        -1.124327
 H         1.508964         0.911555        -1.031347
 H         1.739199         0.898928         0.882491
 H         2.018237        -1.582235        -0.921811
 H         2.248565        -1.523765         0.854117
 H         0.090572        -1.264169         2.064258
 H        -0.888156         0.291604         1.731536
