19
Iteration:  4688charge 0 multiplicity 1
 O        -2.766753        -0.811015         1.617653
 C        -1.746337        -1.421365         0.871329
 C        -2.074577        -2.556374        -0.127493
 C        -1.775052        -1.173654        -0.623304
 O        -0.381545        -0.988490        -1.120151
 C         0.359048        -0.508074         0.111658
 C         1.263871         0.666174        -0.016026
 C         1.794391        -0.737877         0.035275
 C        -0.372959        -0.954077         1.398203
 H        -3.370261        -1.411672         2.132597
 H        -1.246559        -3.246333        -0.445626
 H        -3.010360        -3.155896        -0.125830
 H        -2.454337        -0.290441        -0.963158
 H         1.178451         1.185642        -1.042279
 H         1.482803         1.379135         0.747191
 H         2.010196        -1.277160        -0.964348
 H         2.225172        -1.000722         1.020094
 H         0.022762        -1.640557         2.062755
 H        -0.645549        -0.125088         2.121045
