19
Iteration:  2045charge 0 multiplicity 1
 O        -3.075052        -1.042182         1.476994
 C        -1.844304        -1.380495         0.944799
 C        -1.775241        -2.589055         0.133189
 C        -1.705132        -1.125182        -0.581411
 O        -0.497852        -0.597933        -1.034744
 C         0.417338        -0.471695         0.092303
 C         1.491885         0.552797         0.018590
 C         1.767898        -0.952947        -0.248291
 C        -0.477709        -0.858262         1.377957
 H        -3.262996        -1.579332         2.275008
 H        -0.787387        -3.147155         0.071736
 H        -2.713838        -3.211561        -0.014865
 H        -2.574106        -0.774952        -1.184720
 H         1.480066         1.085537        -0.930838
 H         1.877599         1.346235         0.813657
 H         1.949959        -1.129809        -1.311733
 H         2.444376        -1.517555         0.529158
 H         0.052259        -1.536578         2.076780
 H        -0.614089         0.015420         2.052694
