19
Iteration:  4853
 O        -2.821495        -0.824970         1.575005
 C        -1.716068        -1.357482         0.874524
 C        -2.068462        -2.482601        -0.018534
 C        -1.725791        -1.178107        -0.670520
 O        -0.376723        -0.972948        -1.062418
 C         0.383478        -0.630044         0.110508
 C         1.110582         0.619287         0.058918
 C         1.878719        -0.735205        -0.076367
 C        -0.334748        -0.921995         1.369006
 H        -3.438050        -1.521224         1.844640
 H        -1.515556        -3.400470        -0.090627
 H        -3.116909        -2.670406         0.059739
 H        -2.375943        -0.751161        -1.379086
 H         0.969558         1.224877        -0.782814
 H         1.325202         1.320846         0.943124
 H         2.042466        -0.934643        -1.076989
 H         2.409957        -1.114912         0.731899
 H         0.195303        -1.685555         1.950818
 H        -0.456524        -0.064890         2.127343
