19
Iteration:  2440charge 0 multiplicity 1
 O        -2.956350        -0.953816         1.542461
 C        -1.775061        -1.359282         0.892032
 C        -1.968174        -2.566569         0.048921
 C        -1.672178        -1.192108        -0.636578
 O        -0.447991        -0.740692        -1.080097
 C         0.354860        -0.494373         0.122133
 C         1.410512         0.635078         0.061149
 C         1.766590        -0.831706        -0.158489
 C        -0.410205        -0.917903         1.373747
 H        -3.009446        -1.418785         2.417249
 H        -1.103416        -3.273292         0.004197
 H        -2.880966        -3.041089        -0.139732
 H        -2.649088        -0.880474        -1.301088
 H         1.431026         1.304967        -0.839220
 H         1.560959         1.092083         0.994080
 H         2.007818        -1.156282        -1.149140
 H         2.162891        -1.544934         0.551267
 H         0.153705        -1.724548         1.867377
 H        -0.490737        -0.111467         2.060390
