19
Iteration:   872charge 0 multiplicity 1
 O        -2.896187        -0.825911         1.552558
 C        -1.796452        -1.464157         0.870053
 C        -2.010251        -2.665338         0.114425
 C        -1.829082        -1.169853        -0.668956
 O        -0.456129        -0.840953        -1.090787
 C         0.478586        -0.658270         0.091135
 C         1.260511         0.729140         0.132903
 C         1.926211        -0.627544        -0.238334
 C        -0.364000        -0.989600         1.384106
 H        -3.409823        -1.567211         1.876446
 H        -1.259657        -3.461522         0.052874
 H        -3.097109        -2.947540         0.202424
 H        -2.588791        -0.661822        -1.181662
 H         1.073942         1.615269        -0.591684
 H         1.609799         1.095577         1.146573
 H         2.231529        -0.966000        -1.277009
 H         2.631985        -1.019688         0.424227
 H         0.139394        -1.811184         2.021706
 H        -0.487938        -0.053358         2.010434
