19
Iteration:  3698
 O        -2.902622        -0.839200         1.738114
 C        -1.828333        -1.369630         0.869946
 C        -1.963046        -2.503381        -0.060683
 C        -1.728117        -1.145789        -0.682628
 O        -0.370318        -1.008241        -1.132309
 C         0.410968        -0.567898         0.029232
 C         1.205284         0.735405         0.071624
 C         1.840113        -0.714131        -0.030576
 C        -0.371408        -1.021715         1.312782
 H        -3.390786        -1.635457         2.089190
 H        -1.112371        -3.180215        -0.106876
 H        -3.015175        -2.799228        -0.027023
 H        -2.457302        -0.542434        -1.327095
 H         1.241744         1.256267        -0.885763
 H         1.236324         1.361405         0.919515
 H         2.475450        -1.102932        -0.909963
 H         2.156587        -1.103989         0.902309
 H         0.123752        -1.946787         1.728663
 H        -0.482462        -0.297854         2.107916
