19
Iteration:   917charge 0 multiplicity 1
 O        -2.838619        -0.839681         1.749072
 C        -1.755722        -1.309705         0.784708
 C        -1.887051        -2.578380        -0.082254
 C        -1.744030        -1.091175        -0.634026
 O        -0.425039        -0.926720        -1.126830
 C         0.284200        -0.518933         0.101953
 C         1.191452         0.681980        -0.093213
 C         1.842744        -0.686148         0.010269
 C        -0.397063        -1.154022         1.365942
 H        -3.015553        -1.496724         2.439541
 H        -0.954183        -3.030173        -0.348580
 H        -2.902213        -3.151341         0.063844
 H        -2.593235        -0.713557        -1.273428
 H         1.001375         1.271536        -0.958077
 H         1.275413         1.279652         0.734626
 H         2.265209        -1.352566        -0.694720
 H         2.326325        -0.879377         1.004989
 H         0.146753        -2.053367         1.778314
 H        -0.552945        -0.326576         2.154552
