19
Iteration:  3122
 O        -2.949059        -0.925168         1.654301
 C        -1.865132        -1.396079         0.837744
 C        -1.736507        -2.613329        -0.071764
 C        -1.681895        -1.330459        -0.660695
 O        -0.498065        -0.550630        -1.002094
 C         0.344530        -0.500809         0.127236
 C         1.377279         0.527438        -0.014801
 C         1.774169        -1.009518        -0.127615
 C        -0.469480        -0.709317         1.404488
 H        -3.137143        -1.556600         2.408961
 H        -0.893974        -3.311378        -0.225279
 H        -2.731980        -3.064314        -0.166366
 H        -2.484051        -0.998162        -1.267151
 H         1.316292         0.995254        -1.066249
 H         1.763656         1.087670         0.835775
 H         1.909402        -1.164813        -1.203346
 H         2.482622        -1.432077         0.598912
 H         0.040933        -1.369084         2.196509
 H        -0.840265         0.224920         1.822526
