19
Iteration:  4264charge 0 multiplicity 1
 O        -3.127006        -0.940224         1.487347
 C        -1.896158        -1.334945         0.897292
 C        -1.534008        -2.556047         0.071182
 C        -1.665667        -1.297120        -0.637281
 O        -0.561484        -0.511836        -0.976705
 C         0.387560        -0.489004         0.137907
 C         1.532494         0.476355        -0.059341
 C         1.695568        -1.020826        -0.170584
 C        -0.515375        -0.767624         1.420783
 H        -3.275610        -1.646291         2.184464
 H        -0.581800        -3.140296         0.010842
 H        -2.473995        -3.094463        -0.238107
 H        -2.742758        -1.209846        -1.162538
 H         1.370430         1.139230        -0.930619
 H         1.879310         1.071690         0.745997
 H         2.068140        -1.427897        -1.151182
 H         2.407699        -1.561337         0.611233
 H        -0.026668        -1.634919         1.965182
 H        -0.483423         0.028021         2.175631
