19
Iteration:  1667
 O        -2.928436        -1.007161         1.614110
 C        -1.809548        -1.423842         0.937380
 C        -1.673206        -2.539066        -0.095837
 C        -1.774662        -1.172492        -0.621109
 O        -0.480090        -0.694377        -1.075762
 C         0.252024        -0.505909         0.081579
 C         1.465873         0.523768        -0.131361
 C         1.685326        -0.932430        -0.031409
 C        -0.458745        -0.738808         1.427517
 H        -3.115274        -1.473102         2.425061
 H        -0.790042        -3.145833        -0.190570
 H        -2.685641        -2.970941        -0.311988
 H        -2.595430        -0.725099        -1.013240
 H         1.437958         1.217546        -0.931970
 H         1.790459         1.061260         0.790840
 H         1.784801        -1.458494        -0.927442
 H         2.131978        -1.257818         0.935359
 H         0.256073        -1.299197         2.090779
 H        -0.735948         0.147226         2.014870
