19
Iteration:  4114
 O        -3.065998        -0.841537         1.490607
 C        -1.820844        -1.305544         0.879291
 C        -1.733344        -2.612036         0.002170
 C        -1.721754        -1.218428        -0.559353
 O        -0.450749        -0.721257        -0.959909
 C         0.389246        -0.538740         0.209777
 C         1.359816         0.546435         0.023962
 C         1.800596        -0.895056        -0.272364
 C        -0.417921        -0.856215         1.358622
 H        -3.478435        -1.668550         1.852433
 H        -0.773412        -3.217333         0.015805
 H        -2.532118        -3.375101        -0.002789
 H        -2.576020        -0.717442        -1.171799
 H         1.342955         1.229794        -0.821952
 H         1.830704         0.970277         1.014276
 H         1.768935        -1.105731        -1.307939
 H         2.381834        -1.372835         0.523827
 H        -0.088453        -1.722763         1.988129
 H        -0.689855        -0.045052         2.015310
