19
Iteration:  1457charge 0 multiplicity 1
 O        -2.812837        -0.841315         1.664444
 C        -1.838962        -1.334699         0.826870
 C        -2.000490        -2.538845        -0.026039
 C        -1.773942        -1.167883        -0.618001
 O        -0.407883        -0.912120        -1.069880
 C         0.341418        -0.590029         0.088880
 C         1.203220         0.624538        -0.046109
 C         1.928436        -0.639037        -0.030855
 C        -0.350906        -1.054316         1.339295
 H        -3.517127        -1.479662         1.859802
 H        -1.118957        -3.125952        -0.084029
 H        -2.933280        -3.019617        -0.083554
 H        -2.633404        -0.541909        -1.146218
 H         1.060819         1.049638        -1.040779
 H         1.288134         1.282690         0.895936
 H         2.468676        -0.912236        -0.879582
 H         2.376674        -1.005380         0.924353
 H        -0.025302        -2.026219         1.772269
 H        -0.343924        -0.356695         2.161056
