19
Iteration:  1280
 O        -2.692683        -0.673958         1.699334
 C        -1.728172        -1.283797         0.865356
 C        -2.115049        -2.455450        -0.073120
 C        -1.636478        -1.078980        -0.665630
 O        -0.280454        -1.219471        -1.060852
 C         0.380474        -0.725311         0.130193
 C         0.819991         0.700284         0.026230
 C         1.780797        -0.448478        -0.042477
 C        -0.287148        -1.295570         1.290246
 H        -3.499283        -1.189717         1.718406
 H        -1.366966        -3.290501        -0.217858
 H        -3.133922        -2.815224        -0.050743
 H        -2.271594        -0.477460        -1.223626
 H         0.597136         1.295266        -0.888992
 H         0.921243         1.336205         0.947045
 H         2.176354        -0.708356        -1.050592
 H         2.620773        -0.578547         0.740162
 H         0.241218        -2.244775         1.569528
 H        -0.085009        -0.586171         2.177424
