19
Iteration:   743charge 0 multiplicity 1
 O        -2.905891        -1.042771         1.747662
 C        -1.812096        -1.255476         0.818228
 C        -1.794798        -2.504731        -0.091774
 C        -1.784688        -1.149838        -0.672988
 O        -0.448231        -0.934953        -1.018586
 C         0.392215        -0.538983         0.162961
 C         1.256909         0.619106         0.001235
 C         1.825204        -0.824950        -0.175390
 C        -0.409249        -0.751667         1.399855
 H        -3.459109        -1.864942         1.660617
 H        -0.917792        -3.251535        -0.177755
 H        -2.703928        -3.073365        -0.159517
 H        -2.282918        -0.426802        -1.287695
 H         1.073888         1.069878        -0.950474
 H         1.471380         1.171360         0.827570
 H         1.856414        -1.117526        -1.237635
 H         2.378217        -1.320623         0.655333
 H        -0.030986        -1.446286         2.076856
 H        -0.608167         0.184594         1.932026
