19
Iteration:  4796
 O        -2.853566        -0.682313         1.470698
 C        -1.796641        -1.374106         0.845530
 C        -2.000860        -2.722464         0.025981
 C        -1.706025        -1.249073        -0.584023
 O        -0.477566        -0.786882        -1.024388
 C         0.418835        -0.595569         0.049368
 C         1.218096         0.646936         0.046797
 C         1.839816        -0.687928        -0.055836
 C        -0.358204        -1.108023         1.368491
 H        -2.674670        -0.723808         2.428651
 H        -1.148493        -3.448666        -0.084033
 H        -3.039237        -3.000226        -0.292689
 H        -2.600188        -0.683194        -1.110396
 H         1.073066         1.228941        -0.913922
 H         1.282386         1.207563         0.998721
 H         2.335238        -0.975794        -1.027696
 H         2.431192        -1.209685         0.782253
 H         0.082911        -2.071418         1.842678
 H        -0.633275        -0.324133         2.175347
