19
Iteration:   807charge 0 multiplicity 1
 O        -2.842700        -0.861984         1.604004
 C        -1.805036        -1.347691         0.846761
 C        -1.836880        -2.623714        -0.000647
 C        -1.778820        -1.140299        -0.636391
 O        -0.538332        -0.757979        -1.075015
 C         0.332491        -0.594605         0.061610
 C         1.226635         0.639877        -0.058115
 C         1.946268        -0.718488         0.003306
 C        -0.432079        -1.068862         1.343640
 H        -2.802508        -1.223672         2.517311
 H        -0.950944        -3.346069         0.098082
 H        -2.811935        -3.030837        -0.214055
 H        -2.671314        -0.804733        -1.083226
 H         1.144077         1.173801        -1.052283
 H         1.284785         1.237858         0.853829
 H         2.394646        -1.182500        -0.917951
 H         2.303302        -0.949464         0.977010
 H         0.078918        -1.972898         1.759782
 H        -0.515624        -0.326199         2.170369
