19
Iteration:  4466charge 0 multiplicity 1
 O        -3.074310        -0.912313         1.546347
 C        -1.896352        -1.336649         0.883766
 C        -1.587093        -2.579551         0.033087
 C        -1.740627        -1.271898        -0.636548
 O        -0.547993        -0.562526        -0.983332
 C         0.370494        -0.552342         0.076858
 C         1.494333         0.468235         0.024718
 C         1.729801        -0.993428        -0.149787
 C        -0.449427        -0.735306         1.349720
 H        -3.297576        -1.562793         2.272074
 H        -0.564202        -2.886180         0.177094
 H        -2.293843        -3.369589        -0.179796
 H        -2.710272        -1.112325        -1.307016
 H         1.398926         1.087010        -0.934741
 H         1.962540         0.944928         0.932310
 H         1.999544        -1.290520        -1.161061
 H         2.202807        -1.334392         0.737423
 H         0.025840        -1.606590         1.799317
 H        -0.640618         0.155643         1.975157
