19
Iteration:  4162
 O        -2.901227        -0.977833         1.578700
 C        -1.797895        -1.305075         0.799489
 C        -1.913556        -2.583103         0.054849
 C        -1.748774        -1.183016        -0.686683
 O        -0.465075        -0.695268        -1.025514
 C         0.361912        -0.503735        -0.006592
 C         1.336963         0.607198         0.012266
 C         1.790301        -0.977886         0.041194
 C        -0.389768        -0.846808         1.347958
 H        -2.746610        -1.484688         2.369087
 H        -1.112734        -3.266513         0.039814
 H        -2.844170        -3.047343        -0.210071
 H        -2.433785        -0.762701        -1.315552
 H         1.238514         1.129478        -1.021411
 H         1.375208         1.229084         0.848503
 H         2.212281        -1.337262        -0.941787
 H         2.259352        -1.137080         0.991265
 H         0.001697        -1.676844         1.911449
 H        -0.570527         0.041491         2.025861
