19
Iteration:  1892
 O        -2.973455        -0.961011         1.533078
 C        -1.737801        -1.334133         0.903690
 C        -1.637052        -2.568611         0.035276
 C        -1.678984        -1.163166        -0.651045
 O        -0.528929        -0.529820        -1.100734
 C         0.265783        -0.474464         0.103364
 C         1.336035         0.477815         0.037250
 C         1.698148        -1.030320        -0.132229
 C        -0.438827        -0.870583         1.437556
 H        -2.983209        -1.426092         2.412748
 H        -0.712238        -3.131118         0.064258
 H        -2.525111        -3.168458         0.110412
 H        -2.546802        -0.983303        -1.260559
 H         1.258103         1.000426        -0.990555
 H         1.429194         1.028875         0.947743
 H         1.887223        -1.356903        -1.218641
 H         2.151444        -1.711797         0.568248
 H         0.222989        -1.511129         2.043693
 H        -0.645593         0.091977         1.895784
