19
Iteration:   786
 O        -2.926570        -0.891799         1.719969
 C        -1.776252        -1.412035         0.845607
 C        -2.014256        -2.611891        -0.085744
 C        -1.787984        -1.268157        -0.638707
 O        -0.467566        -0.767329        -1.061234
 C         0.364886        -0.542945         0.030281
 C         1.311341         0.686745        -0.049692
 C         1.920437        -0.740293         0.061153
 C        -0.313668        -0.922555         1.299781
 H        -3.164599        -1.705950         2.233918
 H        -1.161979        -3.363015        -0.290626
 H        -3.009623        -3.037907        -0.131335
 H        -2.727298        -0.865043        -0.957078
 H         1.313231         0.995747        -1.110921
 H         1.312223         1.422749         0.666544
 H         2.377224        -1.017834        -0.929902
 H         2.174681        -1.148442         0.997746
 H         0.283880        -1.612251         1.861107
 H        -0.355063         0.020655         1.871521
