19
Iteration:  2607charge 0 multiplicity 1
 O        -2.981604        -1.207413         1.642960
 C        -1.792539        -1.351907         0.844189
 C        -1.387259        -2.589320         0.024006
 C        -1.660637        -1.178102        -0.638862
 O        -0.662613        -0.236953        -1.088736
 C         0.292964        -0.364756         0.077813
 C         1.602801         0.289019        -0.028644
 C         1.506637        -1.247904        -0.063611
 C        -0.628025        -0.497606         1.370105
 H        -2.837077        -1.761140         2.441510
 H        -0.497772        -3.292609         0.224828
 H        -2.287099        -3.129900        -0.313278
 H        -2.445653        -1.188598        -1.251091
 H         1.825501         0.561883        -1.132735
 H         1.972922         0.922675         0.732977
 H         1.856025        -1.803671        -1.037691
 H         1.777925        -1.914442         0.811559
 H        -0.045083        -0.982476         2.225797
 H        -1.041406         0.410495         1.710504
