19
Iteration:  3000
 O        -2.971744        -1.361744         1.634734
 C        -1.741089        -1.337684         0.885807
 C        -1.453152        -2.467866        -0.020819
 C        -1.803091        -1.058842        -0.640484
 O        -0.624609        -0.298540        -1.100287
 C         0.283846        -0.431756         0.071250
 C         1.622138         0.240638        -0.119783
 C         1.571819        -1.254695         0.115239
 C        -0.574501        -0.408836         1.302663
 H        -3.001507        -2.119332         2.281690
 H        -0.494893        -2.938131         0.070594
 H        -2.224780        -3.160675        -0.052520
 H        -2.749844        -0.947534        -1.314608
 H         1.886791         0.548534        -1.049556
 H         1.789497         1.003650         0.705290
 H         1.725201        -1.884491        -0.701127
 H         1.597211        -1.754424         1.087634
 H         0.149028        -0.764335         2.118255
 H        -0.824855         0.626453         1.474894
