19
Iteration:  3315charge 0 multiplicity 1
 O        -2.763179        -0.814605         1.587893
 C        -1.745702        -1.334486         0.841717
 C        -2.128842        -2.590751        -0.173704
 C        -1.744072        -1.177672        -0.631158
 O        -0.381911        -0.972984        -0.985224
 C         0.368478        -0.571015         0.123509
 C         1.173911         0.660687        -0.002571
 C         1.876993        -0.655447        -0.019256
 C        -0.370710        -1.034852         1.320917
 H        -3.020116        -1.384800         2.327850
 H        -1.406534        -3.468007        -0.101087
 H        -3.195101        -2.710592         0.132102
 H        -2.536315        -0.470001        -1.085149
 H         0.990355         1.165983        -0.952862
 H         1.120583         1.423387         0.866942
 H         2.429741        -0.926095        -0.916751
 H         2.399093        -0.870824         1.032449
 H         0.124944        -1.935649         1.662008
 H        -0.546827        -0.377674         2.173864
