19
Iteration:  4087
 O        -3.032418        -0.976573         1.501234
 C        -1.804464        -1.198459         0.844750
 C        -1.760932        -2.547707         0.122541
 C        -1.667447        -1.246907        -0.650380
 O        -0.494119        -0.597926        -1.089141
 C         0.364225        -0.539494         0.139567
 C         1.362450         0.508133         0.027867
 C         1.795317        -0.980816        -0.188907
 C        -0.439201        -0.876669         1.427385
 H        -2.901577        -1.603812         2.274887
 H        -0.992232        -3.252725         0.290396
 H        -2.689505        -3.064890        -0.080600
 H        -2.493368        -0.943293        -1.207121
 H         1.424212         1.255686        -0.809328
 H         1.495360         0.846089         0.955522
 H         2.199393        -1.031629        -1.249009
 H         2.250195        -1.319274         0.708060
 H        -0.130174        -1.685584         2.075728
 H        -0.751126        -0.011656         2.067591
