19
Iteration:  3486charge 0 multiplicity 1
 O        -2.732252        -0.722182         1.561914
 C        -1.749743        -1.315199         0.857511
 C        -2.214613        -2.466016        -0.203958
 C        -1.661103        -1.101852        -0.615409
 O        -0.323826        -1.278821        -0.965769
 C         0.404264        -0.639162         0.136549
 C         0.966149         0.784407         0.064306
 C         1.806847        -0.488886        -0.081277
 C        -0.248783        -1.261096         1.343359
 H        -2.711037        -1.117400         2.480462
 H        -1.511414        -3.322305        -0.189252
 H        -3.306570        -2.617920        -0.249167
 H        -2.227552        -0.282678        -1.178994
 H         0.794248         1.487767        -0.794872
 H         0.866456         1.235369         1.070612
 H         2.105494        -0.561250        -1.164244
 H         2.400299        -0.774531         0.767514
 H         0.276505        -2.166580         1.722246
 H        -0.225726        -0.617836         2.282599
