19
Iteration:  1346
 O        -2.756636        -0.667845         1.631207
 C        -1.788495        -1.329884         0.817369
 C        -2.174750        -2.535333        -0.050723
 C        -1.652019        -1.251868        -0.638789
 O        -0.390320        -1.090161        -1.006002
 C         0.373173        -0.584736         0.097136
 C         1.044007         0.737398         0.058759
 C         1.910218        -0.469865        -0.083623
 C        -0.255095        -1.288661         1.329991
 H        -3.233504        -1.367291         2.141513
 H        -1.646769        -3.478201         0.037101
 H        -3.219383        -2.681272        -0.176804
 H        -2.414108        -0.826380        -1.303099
 H         0.987677         1.251299        -0.976627
 H         1.201110         1.419790         0.951720
 H         2.304995        -0.395268        -1.166149
 H         2.400092        -0.735978         0.848723
 H         0.036601        -2.286388         1.311071
 H        -0.348808        -0.692846         2.272112
