19
Iteration:  3715charge 0 multiplicity 1
 O        -2.812295        -0.841192         1.649587
 C        -1.810086        -1.250964         0.823665
 C        -1.921919        -2.522068         0.016213
 C        -1.769297        -1.123830        -0.677772
 O        -0.389290        -0.958131        -1.145049
 C         0.276202        -0.545468         0.062714
 C         1.201276         0.610144         0.027979
 C         1.844931        -0.686755         0.044357
 C        -0.434783        -1.074278         1.334546
 H        -3.160288        -1.646428         2.134935
 H        -0.920805        -2.993118        -0.081266
 H        -2.630898        -3.320391        -0.144020
 H        -2.539596        -0.637842        -1.136475
 H         1.252761         1.276597        -0.862147
 H         1.349212         1.000206         1.070368
 H         2.103399        -1.025665        -0.905451
 H         2.586814        -1.075372         0.803623
 H         0.008895        -1.993039         1.669195
 H        -0.271805        -0.267510         2.095754
