19
Iteration:  1576charge 0 multiplicity 1
 O        -2.811395        -0.769018         1.549204
 C        -1.714818        -1.330691         0.913758
 C        -1.793452        -2.614461        -0.035372
 C        -1.827212        -1.280114        -0.723919
 O        -0.525688        -0.748115        -1.059098
 C         0.328067        -0.504175         0.133825
 C         1.201402         0.650741         0.029404
 C         1.823261        -0.883796        -0.110521
 C        -0.399064        -0.979662         1.444690
 H        -3.252990        -1.459352         2.093293
 H        -1.013926        -3.330323         0.059732
 H        -2.644040        -3.118924        -0.160764
 H        -2.803724        -0.823826        -1.184000
 H         1.260695         1.199688        -0.902675
 H         1.491798         0.972733         1.008408
 H         2.158249        -1.072954        -1.132700
 H         2.393800        -1.053826         0.728559
 H        -0.000163        -1.992694         1.804436
 H        -0.424066        -0.324406         2.319031
