19
Iteration:  2831charge 0 multiplicity 1
 O        -2.943252        -1.022605         1.635025
 C        -1.807194        -1.242957         0.873094
 C        -1.871263        -2.593673        -0.060977
 C        -1.724942        -1.165431        -0.595118
 O        -0.535712        -0.706856        -1.096618
 C         0.369486        -0.572546         0.046752
 C         1.335179         0.578646        -0.021654
 C         1.868854        -0.949496         0.017586
 C        -0.373646        -0.759011         1.331895
 H        -3.135438        -1.826846         2.183909
 H        -1.013714        -3.183956        -0.353298
 H        -2.923974        -2.942912        -0.229967
 H        -2.615617        -0.730671        -1.000385
 H         1.311922         1.029545        -0.942752
 H         1.449462         1.210665         0.932700
 H         2.365969        -1.246532        -0.869684
 H         2.175956        -1.430958         0.967139
 H         0.129657        -1.492042         1.907925
 H        -0.450947         0.147850         1.989435
