19
Iteration:  4043charge 0 multiplicity 1
 O        -2.888337        -0.983128         1.609899
 C        -1.735331        -1.371383         0.841241
 C        -1.709373        -2.640258        -0.157693
 C        -1.747155        -1.180426        -0.595939
 O        -0.573814        -0.628322        -1.081045
 C         0.241675        -0.435635         0.049243
 C         1.472306         0.465698         0.016453
 C         1.779594        -1.047335         0.052036
 C        -0.580203        -0.628353         1.366849
 H        -2.900793        -1.670208         2.329699
 H        -0.809849        -3.234126        -0.243349
 H        -2.536548        -3.332831        -0.052954
 H        -2.682971        -0.648658        -0.859550
 H         1.813307         0.940342        -0.940736
 H         1.776214         1.075940         0.787852
 H         1.986349        -1.607023        -0.870675
 H         2.001562        -1.469833         1.028295
 H         0.060042        -1.180834         2.029576
 H        -0.787692         0.375638         1.759525
