19
Iteration:  1681charge 0 multiplicity 1
 O        -2.973825        -1.050130         1.593708
 C        -1.728048        -1.328103         0.865700
 C        -1.751229        -2.622061        -0.059916
 C        -1.735173        -1.227360        -0.614439
 O        -0.605452        -0.568485        -1.022792
 C         0.367990        -0.409286         0.131327
 C         1.460412         0.552690        -0.090104
 C         1.693627        -1.036455        -0.027306
 C        -0.437641        -0.702353         1.385406
 H        -2.970036        -1.723095         2.320952
 H        -0.839095        -3.295142        -0.128088
 H        -2.713839        -3.243719        -0.080903
 H        -2.583065        -0.970371        -1.271669
 H         1.588085         0.712590        -1.178933
 H         1.852597         1.279495         0.608573
 H         2.118191        -1.462344        -0.965606
 H         2.162529        -1.560347         0.819507
 H         0.048567        -1.394286         2.032231
 H        -0.653764         0.247632         1.923754
