19
Iteration:  1577
 O        -2.813852        -0.770779         1.553271
 C        -1.718769        -1.328949         0.909443
 C        -1.791265        -2.609591        -0.037481
 C        -1.825019        -1.284808        -0.718103
 O        -0.531301        -0.753113        -1.054879
 C         0.323506        -0.499829         0.135199
 C         1.212033         0.657367         0.026304
 C         1.822812        -0.879916        -0.107589
 C        -0.402946        -0.982770         1.443507
 H        -3.262156        -1.447518         2.081494
 H        -0.988955        -3.329291         0.051296
 H        -2.663808        -3.121751        -0.162926
 H        -2.790499        -0.824811        -1.214805
 H         1.287757         1.209640        -0.918906
 H         1.496843         0.951649         0.997762
 H         2.177924        -1.071069        -1.146230
 H         2.415748        -1.094936         0.720046
 H         0.020389        -2.007009         1.796846
 H        -0.425356        -0.324297         2.304211
