19
Iteration:  3623charge 0 multiplicity 1
 O        -2.896308        -0.758073         1.539410
 C        -1.796852        -1.279944         0.864462
 C        -1.977383        -2.544347        -0.050327
 C        -1.787149        -1.169452        -0.673523
 O        -0.344946        -1.026451        -0.996030
 C         0.396816        -0.574964         0.151637
 C         1.096699         0.763659         0.070503
 C         1.873533        -0.693301        -0.111814
 C        -0.313025        -1.168021         1.365776
 H        -2.975013        -1.179295         2.388396
 H        -1.117567        -3.186480        -0.261786
 H        -2.976045        -2.938049        -0.002558
 H        -2.333136        -0.398427        -1.392763
 H         0.683243         1.301044        -0.792818
 H         1.083302         1.219471         1.019630
 H         2.292933        -0.801320        -1.139522
 H         2.581441        -1.103769         0.560988
 H         0.076650        -2.224666         1.485873
 H        -0.175301        -0.734356         2.341105
