19
Iteration:  4041
 O        -2.884869        -0.999144         1.603548
 C        -1.740389        -1.360820         0.860011
 C        -1.703743        -2.641495        -0.155072
 C        -1.743826        -1.173264        -0.601488
 O        -0.563755        -0.622522        -1.069827
 C         0.241419        -0.439146         0.057812
 C         1.460078         0.448148        -0.001712
 C         1.768134        -1.055003         0.055329
 C        -0.573423        -0.608172         1.350173
 H        -2.880912        -1.707038         2.304256
 H        -0.789749        -3.300641        -0.269259
 H        -2.563901        -3.327947        -0.024072
 H        -2.719169        -0.579104        -0.930753
 H         1.777738         0.935162        -0.949575
 H         1.793884         1.140616         0.875850
 H         1.946894        -1.570770        -0.848478
 H         1.984206        -1.507101         1.046155
 H         0.107017        -1.169202         1.975036
 H        -0.793081         0.401982         1.796306
