19
Iteration:  3076
 O        -3.100205        -1.129877         1.476648
 C        -1.725337        -1.296093         0.914819
 C        -1.450969        -2.581133         0.098636
 C        -1.773841        -1.180228        -0.602286
 O        -0.685263        -0.383614        -1.011158
 C         0.280343        -0.470454         0.023642
 C         1.562376         0.359404         0.002424
 C         1.682812        -1.150634        -0.135037
 C        -0.445400        -0.611882         1.389256
 H        -3.325823        -1.509394         2.354982
 H        -0.504020        -3.020479         0.118251
 H        -2.243976        -3.273022         0.026100
 H        -2.632757        -1.122036        -1.302628
 H         1.770218         0.918994        -0.897520
 H         1.771965         0.860544         0.924162
 H         1.808337        -1.360336        -1.192498
 H         2.005517        -1.794308         0.637460
 H         0.172435        -1.262940         2.083531
 H        -0.637516         0.368570         1.800483
