19
Iteration:  4096charge 0 multiplicity 1
 O        -3.015776        -0.959888         1.464234
 C        -1.829514        -1.252648         0.866155
 C        -1.749303        -2.514112         0.156807
 C        -1.671450        -1.199181        -0.671627
 O        -0.476742        -0.640318        -1.092416
 C         0.325354        -0.594565         0.147516
 C         1.404098         0.551190         0.045094
 C         1.764775        -0.939731        -0.208343
 C        -0.468356        -0.905043         1.494065
 H        -3.206209        -1.625647         2.190899
 H        -0.922347        -3.234676         0.268204
 H        -2.700692        -2.994443        -0.112660
 H        -2.509726        -1.060379        -1.407181
 H         1.179043         1.346698        -0.785363
 H         1.705613         1.028791         1.004130
 H         1.981794        -1.214542        -1.291935
 H         2.488116        -1.416791         0.456543
 H         0.139630        -1.635501         2.014990
 H        -0.398111         0.071818         2.054634
