19
Iteration:  3929charge 0 multiplicity 1
 O        -3.036281        -1.169858         1.505512
 C        -1.748066        -1.304920         0.911536
 C        -1.362520        -2.625238         0.051629
 C        -1.686839        -1.294712        -0.592850
 O        -0.657928        -0.330490        -1.037271
 C         0.260013        -0.322257         0.106241
 C         1.668913         0.278027         0.006690
 C         1.471834        -1.172354        -0.148444
 C        -0.605380        -0.493715         1.366770
 H        -2.870759        -1.349460         2.460326
 H        -0.491480        -3.230013         0.106100
 H        -2.196621        -3.285424        -0.199811
 H        -2.431063        -1.148779        -1.252113
 H         1.767800         0.757473        -1.043268
 H         1.927902         0.828880         0.886757
 H         1.686052        -1.670061        -1.125420
 H         1.694130        -1.703533         0.739603
 H         0.024262        -1.048031         2.064309
 H        -0.801165         0.495333         1.751602
