19
Iteration:  1733charge 0 multiplicity 1
 O        -3.027606        -1.129494         1.593079
 C        -1.743142        -1.299850         0.906363
 C        -1.419863        -2.568288         0.027765
 C        -1.748312        -1.196205        -0.657664
 O        -0.556440        -0.504400        -0.987406
 C         0.259380        -0.404479         0.099632
 C         1.530205         0.318104        -0.022213
 C         1.539512        -1.150499        -0.163738
 C        -0.582397        -0.483686         1.352614
 H        -3.070689        -1.802136         2.327285
 H        -0.288018        -2.608030        -0.027624
 H        -2.058731        -3.517112        -0.165477
 H        -2.588277        -0.978962        -1.249061
 H         1.879230         1.008697        -0.839668
 H         1.805627         0.747030         0.948435
 H         1.553879        -1.349363        -1.255934
 H         1.988442        -1.982712         0.399899
 H         0.082065        -1.023262         2.092570
 H        -0.805917         0.481485         1.868599
