19
Iteration:  3664
 O        -2.816742        -0.848103         1.572067
 C        -1.755425        -1.458535         0.791675
 C        -2.159601        -2.527702        -0.044613
 C        -1.724180        -1.131011        -0.680529
 O        -0.384349        -0.932215        -1.053626
 C         0.464145        -0.610386         0.173744
 C         1.166149         0.728303         0.006313
 C         1.965161        -0.644220        -0.099663
 C        -0.426501        -1.043269         1.449388
 H        -3.344775        -1.509151         2.066354
 H        -1.548659        -3.421642        -0.231826
 H        -3.169398        -2.859239         0.183769
 H        -2.516942        -0.548214        -1.027229
 H         0.774567         1.143379        -0.932334
 H         1.361708         1.309094         0.846768
 H         2.442458        -1.095723        -1.002488
 H         2.550441        -0.820642         0.835206
 H         0.052292        -1.875066         2.018007
 H        -0.540893        -0.191698         2.089257
