19
Iteration:  2383
 O        -3.006845        -0.834802         1.564075
 C        -1.779860        -1.327338         0.916134
 C        -1.822324        -2.618218        -0.125696
 C        -1.749462        -1.180004        -0.509163
 O        -0.531270        -0.757183        -1.075243
 C         0.350264        -0.555755         0.056956
 C         1.339011         0.561017         0.028338
 C         1.887695        -0.843784        -0.070158
 C        -0.395234        -0.940257         1.344091
 H        -3.217775        -1.496685         2.229709
 H        -0.922443        -3.196650        -0.089245
 H        -2.782045        -3.154525        -0.047853
 H        -2.693332        -0.702014        -0.978292
 H         1.402992         1.260473        -0.774227
 H         1.548136         1.126375         0.982775
 H         2.264346        -0.977671        -1.061314
 H         2.457508        -1.241851         0.717713
 H         0.092552        -1.784359         1.724186
 H        -0.318338        -0.099469         2.085489
