19
Iteration:  1060
 O        -2.873991        -0.800063         1.605581
 C        -1.750900        -1.423358         0.895118
 C        -2.016631        -2.612231         0.002376
 C        -1.772729        -1.200844        -0.601597
 O        -0.465988        -0.979197        -1.124789
 C         0.319496        -0.508762         0.034422
 C         1.334160         0.789277         0.025082
 C         1.832383        -0.603730        -0.036892
 C        -0.386703        -1.149243         1.341196
 H        -2.684159        -1.115144         2.501430
 H        -1.266002        -3.466608        -0.228920
 H        -3.046735        -2.960656        -0.123205
 H        -2.533779        -0.573144        -1.120579
 H         1.399237         1.381314        -0.830582
 H         1.371323         1.223937         0.959102
 H         2.419872        -0.959641        -0.957302
 H         2.258810        -0.962116         0.909664
 H         0.333213        -1.978398         1.565581
 H        -0.335835        -0.212226         2.012575
