19
Iteration:  1047
 O        -2.826486        -0.803982         1.532213
 C        -1.775388        -1.401143         0.878916
 C        -2.063156        -2.621236        -0.007067
 C        -1.840734        -1.302285        -0.606745
 O        -0.508053        -0.871075        -1.033780
 C         0.390112        -0.472388         0.058596
 C         1.233977         0.736134         0.037291
 C         1.938076        -0.664972        -0.024420
 C        -0.244966        -1.064490         1.268908
 H        -3.103453        -1.172581         2.397933
 H        -1.304847        -3.483759        -0.091438
 H        -3.122031        -2.853096         0.029784
 H        -2.752800        -0.909156        -1.190787
 H         1.200490         1.329254        -0.854028
 H         1.327333         1.320484         0.942776
 H         2.299749        -0.980883        -0.930126
 H         2.462723        -1.038606         0.852420
 H         0.196299        -2.023281         1.644596
 H        -0.313391        -0.494072         2.252773
