19
Iteration:  4684
 O        -2.787715        -0.805497         1.623982
 C        -1.780418        -1.404542         0.862137
 C        -2.066766        -2.592172        -0.161504
 C        -1.805127        -1.161205        -0.589973
 O        -0.384095        -0.989526        -1.103904
 C         0.342598        -0.546273         0.089902
 C         1.282816         0.694103        -0.022205
 C         1.827106        -0.738057         0.032950
 C        -0.369340        -0.932590         1.388669
 H        -3.321324        -1.332439         2.203115
 H        -1.228790        -3.193390        -0.421980
 H        -2.966756        -3.194339        -0.076905
 H        -2.425242        -0.482324        -0.972590
 H         1.254202         1.257583        -0.853146
 H         1.557129         1.415723         0.743967
 H         2.097057        -1.233362        -0.876593
 H         2.304366        -1.031159         0.976308
 H         0.098726        -1.808004         2.018002
 H        -0.595115        -0.106242         2.035692
