19
Iteration:  2350
 O        -2.900384        -0.990006         1.584854
 C        -1.779186        -1.329420         0.815683
 C        -1.951618        -2.558298         0.009872
 C        -1.684873        -1.150567        -0.632544
 O        -0.432805        -0.752974        -1.093716
 C         0.366405        -0.521903         0.135669
 C         1.385597         0.592927         0.049190
 C         1.780050        -0.856010        -0.118661
 C        -0.515160        -0.891695         1.349048
 H        -2.728260        -1.588306         2.335489
 H        -1.245834        -3.353947         0.167223
 H        -2.997069        -2.753533         0.281623
 H        -2.525398        -0.768744        -1.251113
 H         1.440005         1.117867        -0.835593
 H         1.710620         1.108708         1.038979
 H         1.986208        -0.979402        -1.155988
 H         2.497112        -1.297386         0.540951
 H        -0.076304        -1.592070         1.984160
 H        -0.755037        -0.019375         2.030844
