19
Iteration:   638charge 0 multiplicity 1
 O        -3.053796        -1.142070         1.635944
 C        -1.772803        -1.264645         0.912347
 C        -1.568514        -2.504535        -0.011989
 C        -1.731448        -1.252345        -0.674022
 O        -0.558927        -0.540253        -1.001508
 C         0.369962        -0.638865         0.099666
 C         1.407964         0.453812        -0.004316
 C         1.751693        -1.012117        -0.235993
 C        -0.558158        -0.603057         1.360330
 H        -2.669932        -1.180216         2.559933
 H        -0.583456        -2.933339         0.144302
 H        -2.405577        -3.094244         0.126974
 H        -2.507513        -1.056273        -1.430872
 H         1.332192         1.228754        -0.842235
 H         1.725199         0.763416         0.980799
 H         1.806098        -1.394742        -1.238882
 H         2.379228        -1.407519         0.502918
 H         0.019417        -1.127775         2.216941
 H        -0.897272         0.385403         1.775276
