19
Iteration:  4773
 O        -2.808995        -0.752150         1.462284
 C        -1.713863        -1.359227         0.862275
 C        -1.999832        -2.568603         0.029316
 C        -1.727524        -1.275333        -0.710731
 O        -0.440925        -0.851696        -1.089325
 C         0.357468        -0.536042         0.143616
 C         1.166407         0.614200         0.150136
 C         1.755671        -0.745209        -0.080837
 C        -0.303358        -1.035803         1.383493
 H        -3.070365        -1.388647         2.148851
 H        -1.294342        -3.441348         0.180220
 H        -3.093618        -2.748411         0.181446
 H        -2.613621        -0.685892        -1.171493
 H         0.999776         1.304488        -0.775327
 H         1.487589         1.129396         1.005701
 H         2.013086        -1.093224        -1.182414
 H         2.581400        -1.111298         0.602774
 H         0.221774        -1.924313         1.966090
 H        -0.458001        -0.098860         2.042682
