19
Iteration:  4665
 O        -2.934680        -0.809514         1.624407
 C        -1.818953        -1.315982         0.860236
 C        -1.958196        -2.543304        -0.073203
 C        -1.779646        -1.208780        -0.639251
 O        -0.505929        -0.950425        -0.993613
 C         0.451626        -0.572015         0.045072
 C         1.304334         0.633490         0.028537
 C         1.931557        -0.707833        -0.044829
 C        -0.382075        -1.004172         1.291854
 H        -2.931170        -1.332558         2.430375
 H        -1.225646        -3.357667        -0.148251
 H        -2.972771        -2.933364        -0.309917
 H        -2.544516        -0.694220        -1.247063
 H         1.397438         1.186627        -0.888603
 H         1.236182         1.225593         0.900132
 H         2.406015        -0.893414        -1.075973
 H         2.350185        -1.031962         0.943356
 H        -0.003365        -1.764717         1.889663
 H        -0.458027        -0.218035         2.092405
