19
Iteration:  4581
 O        -2.868196        -0.798633         1.521680
 C        -1.764697        -1.405570         0.903768
 C        -1.987905        -2.592125         0.024387
 C        -1.701143        -1.288624        -0.583952
 O        -0.473684        -0.768825        -1.071798
 C         0.360603        -0.511744         0.104667
 C         1.318845         0.639243         0.049038
 C         1.839511        -0.803421        -0.111907
 C        -0.390235        -0.960125         1.341420
 H        -3.438751        -1.436747         2.021511
 H        -1.127769        -3.254605         0.037206
 H        -3.010533        -2.948030        -0.179838
 H        -2.599519        -0.897494        -1.162751
 H         1.355833         1.289837        -0.866095
 H         1.515164         1.208774         0.988816
 H         2.256648        -1.176324        -1.055267
 H         2.303377        -1.221364         0.756769
 H         0.023266        -1.859918         1.823028
 H        -0.712692        -0.145044         2.008098
