19
Iteration:  2746
 O        -2.969468        -0.990695         1.486326
 C        -1.811510        -1.313716         0.821129
 C        -1.707980        -2.636215         0.081299
 C        -1.755434        -1.140031        -0.589602
 O        -0.568845        -0.565927        -1.016700
 C         0.314716        -0.540090         0.100810
 C         1.424609         0.484338         0.058618
 C         1.750327        -0.962018        -0.171228
 C        -0.436253        -0.802772         1.352125
 H        -2.975220        -1.416908         2.336505
 H        -0.822744        -3.318960         0.229914
 H        -2.611341        -3.293008         0.240401
 H        -2.421845        -0.788120        -1.285512
 H         1.428551         1.185343        -0.761637
 H         1.831170         1.053593         0.939537
 H         2.116384        -1.262589        -1.189510
 H         2.300467        -1.605720         0.604044
 H         0.245782        -1.485971         1.930385
 H        -0.641413         0.178086         1.898975
