19
Iteration:  3674
 O        -2.798298        -0.881559         1.594077
 C        -1.753721        -1.324206         0.813652
 C        -2.191703        -2.593856        -0.085348
 C        -1.753697        -1.183550        -0.637708
 O        -0.401611        -0.907527        -1.039925
 C         0.437619        -0.615587         0.149027
 C         1.133054         0.629657         0.007865
 C         1.973849        -0.600600        -0.050570
 C        -0.364374        -0.977715         1.395271
 H        -3.218862        -1.690551         1.855902
 H        -1.490979        -3.438299        -0.044240
 H        -3.291395        -2.669179        -0.078533
 H        -2.358102        -0.584515        -1.181529
 H         1.271332         1.161345        -0.938924
 H         1.313870         1.241526         0.847356
 H         2.301948        -1.040052        -1.007934
 H         2.647992        -0.864067         0.827497
 H         0.103768        -1.843687         1.894927
 H        -0.656963        -0.252024         2.153280
