19
Iteration:   861
 O        -2.905974        -0.822547         1.520259
 C        -1.783208        -1.383449         0.886718
 C        -2.030391        -2.655866         0.065164
 C        -1.748183        -1.251649        -0.578573
 O        -0.440242        -0.855600        -1.064233
 C         0.398891        -0.624447         0.084699
 C         1.321220         0.684873         0.175442
 C         1.898070        -0.603383        -0.276521
 C        -0.412683        -1.016058         1.343434
 H        -3.469405        -1.292069         2.160821
 H        -1.118033        -3.283102        -0.011145
 H        -2.962040        -3.272113         0.001338
 H        -2.566275        -0.739300        -0.954141
 H         0.989992         1.503433        -0.587786
 H         1.769444         1.062481         1.138812
 H         2.026775        -0.787605        -1.405405
 H         2.648167        -0.948644         0.350811
 H         0.219314        -1.735589         1.983692
 H        -0.531545        -0.053971         1.919392
