19
Iteration:  2310charge 0 multiplicity 1
 O        -2.924716        -0.900900         1.605660
 C        -1.778162        -1.355141         0.879083
 C        -1.697353        -2.584477        -0.106919
 C        -1.771089        -1.107687        -0.562384
 O        -0.547517        -0.651267        -1.048116
 C         0.322290        -0.629307         0.084407
 C         1.339405         0.502319        -0.014862
 C         1.830062        -0.909499        -0.058283
 C        -0.457151        -0.867170         1.360934
 H        -3.367049        -1.577804         2.155264
 H        -0.727801        -3.039307        -0.169687
 H        -2.555420        -3.244232        -0.093772
 H        -2.728957        -0.542427        -0.976078
 H         1.395273         0.949251        -0.990055
 H         1.442189         1.259599         0.706762
 H         2.173996        -1.264614        -1.010824
 H         2.220208        -1.269057         0.858380
 H         0.050253        -1.661894         2.015468
 H        -0.615334         0.047607         1.900190
