19
Iteration:    19
 O        -2.914797        -1.066758         1.746622
 C        -1.820136        -1.431168         0.813071
 C        -1.393595        -2.674850         0.138196
 C        -1.714874        -1.301995        -0.687038
 O        -0.655310        -0.371990        -1.118087
 C         0.264062        -0.250422         0.050299
 C         1.569881         0.402911        -0.088216
 C         1.609365        -1.088728        -0.051149
 C        -0.653315        -0.639901         1.287218
 H        -2.902221        -1.721310         2.454487
 H        -0.378682        -2.948243         0.391135
 H        -2.131936        -3.425060         0.047114
 H        -2.507730        -1.367248        -1.471237
 H         1.725118         0.852472        -1.055628
 H         2.040376         1.001193         0.690540
 H         1.634359        -1.672954        -1.046580
 H         1.719450        -1.613975         0.828346
 H        -0.059030        -1.104639         2.049184
 H        -1.173232         0.252061         1.806572
