19
Iteration:  3804charge 0 multiplicity 1
 O        -2.952561        -0.907347         1.578704
 C        -1.852916        -1.317910         0.849244
 C        -1.693548        -2.483054         0.031934
 C        -1.694013        -1.149750        -0.592381
 O        -0.459986        -0.728872        -1.121370
 C         0.371620        -0.628961         0.080302
 C         1.228182         0.615567         0.075000
 C         1.816439        -0.922612        -0.095354
 C        -0.438598        -0.916427         1.341370
 H        -3.164800        -1.753705         2.089618
 H        -0.946780        -3.247147         0.206504
 H        -2.708612        -2.978851        -0.106604
 H        -2.549847        -0.902259        -1.186932
 H         1.109870         1.348550        -0.721913
 H         1.580079         1.050436         0.995313
 H         1.830949        -1.302763        -1.198023
 H         2.348813        -1.367762         0.700082
 H        -0.094626        -1.673423         2.055022
 H        -0.459329         0.056877         1.864680
