19
Iteration:  3971charge 0 multiplicity 1
 O        -3.011739        -1.178776         1.516460
 C        -1.762475        -1.313291         0.851619
 C        -1.350640        -2.554575         0.064758
 C        -1.629388        -1.206843        -0.586757
 O        -0.646915        -0.314331        -1.002254
 C         0.264569        -0.468257         0.098628
 C         1.589438         0.274193        -0.083785
 C         1.505792        -1.213442        -0.108191
 C        -0.606117        -0.440401         1.403162
 H        -3.360538        -1.978948         2.008806
 H        -0.370568        -2.908783         0.238829
 H        -2.107588        -3.334566        -0.011446
 H        -2.551947        -1.155315        -1.068867
 H         1.667209         0.827533        -1.083462
 H         2.094344         0.699812         0.752246
 H         1.620792        -1.657558        -1.130343
 H         1.725688        -1.775173         0.775644
 H        -0.149607        -0.896686         2.323595
 H        -0.980685         0.561538         1.593902
