19
Iteration:    48
 O        -2.928053        -1.222114         1.602179
 C        -1.708171        -1.280364         0.890970
 C        -1.302806        -2.553702         0.092128
 C        -1.688592        -1.306673        -0.630698
 O        -0.706959        -0.391716        -1.027012
 C         0.243064        -0.364359         0.012351
 C         1.458763         0.330038        -0.057567
 C         1.503002        -1.203262        -0.094647
 C        -0.554169        -0.382325         1.314607
 H        -2.891167        -1.932841         2.297196
 H        -0.289909        -3.029241         0.263341
 H        -2.244463        -3.309739         0.192129
 H        -2.511110        -1.342758        -1.357310
 H         1.753645         0.848247        -0.986328
 H         1.772093         0.837151         0.865253
 H         1.582672        -1.740797        -1.062573
 H         1.607133        -1.848582         0.848219
 H         0.098145        -0.700391         2.220939
 H        -0.949196         0.587075         1.488455
