19
Iteration:  2783charge 0 multiplicity 1
 O        -3.016653        -0.934793         1.634842
 C        -1.818472        -1.309969         0.927335
 C        -1.786875        -2.683081        -0.150713
 C        -1.691405        -1.162796        -0.652689
 O        -0.471039        -0.661076        -1.009694
 C         0.313714        -0.503084         0.114186
 C         1.433822         0.525181        -0.003334
 C         1.844361        -0.897895        -0.184514
 C        -0.487121        -0.807413         1.440188
 H        -3.169314        -1.635415         2.277655
 H        -0.972568        -3.293951         0.174892
 H        -2.804174        -3.003054        -0.133323
 H        -2.647838        -1.055680        -1.283648
 H         1.296229         0.977507        -1.033808
 H         1.783783         1.081760         0.825015
 H         1.907639        -1.291162        -1.199300
 H         2.447083        -1.301049         0.635163
 H         0.122215        -1.497491         2.090377
 H        -0.668891         0.035890         2.060083
