19
Iteration:  1205charge 0 multiplicity 1
 O        -2.750307        -0.615584         1.570438
 C        -1.756687        -1.332890         0.815713
 C        -1.991261        -2.548784        -0.027754
 C        -1.790616        -1.155909        -0.660381
 O        -0.390803        -1.098675        -1.102353
 C         0.358792        -0.728419         0.067443
 C         0.939867         0.679439         0.151047
 C         1.848747        -0.486979        -0.045068
 C        -0.267821        -1.251308         1.338001
 H        -2.612526        -0.826177         2.528941
 H        -1.183870        -3.244037        -0.215012
 H        -2.926870        -2.999553         0.053255
 H        -2.632882        -0.616110        -1.053054
 H         0.843212         1.339882        -0.734833
 H         0.934422         1.217929         1.156142
 H         2.266759        -0.569730        -1.024317
 H         2.590113        -0.826459         0.761432
 H         0.189465        -2.270291         1.552505
 H        -0.110240        -0.478145         2.111118
