19
Iteration:   224charge 0 multiplicity 1
 O        -2.932959        -0.954291         1.512391
 C        -1.779071        -1.357567         0.865611
 C        -1.793522        -2.664156         0.034040
 C        -1.780011        -1.141213        -0.598308
 O        -0.527957        -0.736046        -1.030929
 C         0.393796        -0.487045         0.151762
 C         1.279571         0.650626        -0.197582
 C         1.784107        -0.857691        -0.048958
 C        -0.362724        -0.907432         1.413195
 H        -2.916804        -1.195442         2.477549
 H        -0.777011        -3.063737        -0.029954
 H        -2.564730        -3.358211         0.167743
 H        -2.662309        -0.608587        -0.945153
 H         0.994973         0.997961        -1.166326
 H         1.456705         1.334811         0.583806
 H         2.025395        -1.421007        -0.869988
 H         2.396075        -1.123598         0.876751
 H         0.096764        -1.820660         1.919837
 H        -0.394913        -0.113343         2.138846
