19
Iteration:  3437charge 0 multiplicity 1
 O        -2.720190        -0.619342         1.566169
 C        -1.736116        -1.332274         0.850005
 C        -2.156648        -2.581182         0.098640
 C        -1.700619        -1.210326        -0.635296
 O        -0.337465        -0.951561        -1.127738
 C         0.411348        -0.693633         0.022925
 C         0.940364         0.725510         0.143903
 C         1.903675        -0.503759        -0.039559
 C        -0.329558        -1.330579         1.316515
 H        -3.176137        -1.399849         1.847924
 H        -1.537395        -3.456884         0.076614
 H        -3.113215        -2.695550        -0.449690
 H        -2.455401        -0.816993        -1.232637
 H         0.962247         1.299785        -0.790817
 H         0.928675         1.345150         1.014403
 H         2.435255        -0.689328        -1.000269
 H         2.280103        -0.816808         0.906492
 H        -0.011023        -2.312360         1.611482
 H        -0.178036        -0.797208         2.215701
