19
Iteration:  4731
 O        -2.989791        -0.853001         1.742198
 C        -1.859072        -1.266806         0.820225
 C        -2.003984        -2.479421         0.001875
 C        -1.732369        -1.155963        -0.687191
 O        -0.382885        -0.982431        -1.101890
 C         0.418960        -0.654572         0.144897
 C         1.282555         0.624435        -0.030556
 C         2.010854        -0.660071        -0.085670
 C        -0.427208        -1.038236         1.366571
 H        -3.653535        -1.594859         1.649165
 H        -1.072009        -3.126844        -0.085271
 H        -2.917539        -3.096238        -0.175339
 H        -2.583265        -0.558224        -1.239702
 H         1.010596         1.400993        -0.828918
 H         1.438076         1.381758         0.687147
 H         2.391807        -1.102421        -1.102737
 H         2.661318        -0.931937         0.795199
 H         0.133651        -1.839630         1.853455
 H        -0.531109        -0.196167         2.146460
