19
Iteration:  4488
 O        -2.949786        -0.974222         1.474172
 C        -1.759712        -1.355462         0.828231
 C        -1.832134        -2.665298         0.113924
 C        -1.643108        -1.170389        -0.624683
 O        -0.522631        -0.577711        -1.049958
 C         0.354512        -0.421020         0.115438
 C         1.415881         0.513386        -0.045093
 C         1.777264        -0.975755        -0.092476
 C        -0.478473        -0.824491         1.453709
 H        -3.092124        -1.702238         2.073285
 H        -1.112856        -3.482236         0.105440
 H        -2.895577        -2.850981         0.064374
 H        -2.651578        -0.901403        -1.159056
 H         1.565574         1.040541        -1.073046
 H         1.623759         1.087969         0.855633
 H         1.847738        -1.350874        -1.127210
 H         2.254187        -1.406991         0.772287
 H         0.093527        -1.512582         2.108582
 H        -0.893246         0.113376         1.900895
