19
Iteration:  1737charge 0 multiplicity 1
 O        -3.000939        -1.140527         1.578243
 C        -1.708568        -1.323257         0.892531
 C        -1.416619        -2.560789         0.044057
 C        -1.727177        -1.178490        -0.660607
 O        -0.579013        -0.511465        -1.001844
 C         0.241446        -0.410324         0.136176
 C         1.536485         0.320926        -0.027610
 C         1.501353        -1.170797        -0.168467
 C        -0.599425        -0.461139         1.358610
 H        -3.066911        -1.728505         2.332807
 H        -0.316904        -2.578358         0.002226
 H        -1.989967        -3.446031        -0.065168
 H        -2.639575        -0.873338        -1.337035
 H         1.953773         1.003652        -0.767152
 H         1.904843         0.677624         0.924978
 H         1.501718        -1.330489        -1.280279
 H         2.036155        -1.874105         0.455444
 H        -0.001920        -1.051519         2.007589
 H        -0.854552         0.451670         1.909785
