19
Iteration:  3154charge 0 multiplicity 1
 O        -2.934773        -1.037398         1.598078
 C        -1.782599        -1.341324         0.908477
 C        -1.861366        -2.557825         0.044633
 C        -1.793938        -1.096168        -0.653496
 O        -0.507294        -0.763335        -1.088958
 C         0.370895        -0.527506         0.042278
 C         1.378436         0.576295        -0.043591
 C         1.856052        -0.900738        -0.001410
 C        -0.416617        -0.812194         1.354767
 H        -3.430985        -1.743842         1.989483
 H        -1.034399        -3.158831        -0.300775
 H        -2.884239        -2.879999         0.075342
 H        -2.673033        -0.769179        -1.159795
 H         1.433176         1.275853        -0.917533
 H         1.689533         1.192036         0.779433
 H         2.216227        -1.123309        -0.991777
 H         2.511824        -1.203661         0.839702
 H         0.091665        -1.530799         2.082018
 H        -0.668691         0.070848         1.937878
