19
Iteration:  3936charge 0 multiplicity 1
 O        -2.994698        -1.163916         1.458217
 C        -1.714528        -1.342687         0.892112
 C        -1.422065        -2.612273         0.054023
 C        -1.614968        -1.314041        -0.636804
 O        -0.668750        -0.319125        -1.003633
 C         0.261279        -0.339725         0.098826
 C         1.637840         0.298985        -0.019498
 C         1.370168        -1.151730        -0.128694
 C        -0.544449        -0.467894         1.394976
 H        -2.723745        -1.448446         2.385546
 H        -0.439075        -3.104797         0.291878
 H        -2.234547        -3.332355         0.030135
 H        -2.658482        -1.244190        -1.223065
 H         1.946932         0.855839        -0.894460
 H         1.966551         0.708841         0.908862
 H         1.507586        -1.702086        -1.030611
 H         1.577834        -1.914204         0.713110
 H        -0.019693        -1.052876         2.205855
 H        -0.808519         0.536765         1.773283
