19
Iteration:  4587
 O        -2.890234        -0.728016         1.523581
 C        -1.773868        -1.437276         0.904529
 C        -1.954313        -2.656117         0.001719
 C        -1.747221        -1.269573        -0.574115
 O        -0.499776        -0.785037        -1.073180
 C         0.382011        -0.516080         0.092696
 C         1.360640         0.659723         0.043343
 C         1.856675        -0.769309        -0.125343
 C        -0.413802        -1.019680         1.372518
 H        -3.428553        -1.395870         1.943319
 H        -1.085951        -3.328669        -0.041364
 H        -2.942255        -3.034313        -0.262189
 H        -2.573008        -0.851573        -1.013802
 H         1.292132         1.405850        -0.695437
 H         1.667510         1.098679         0.972763
 H         2.172233        -1.235182        -1.063167
 H         2.282779        -1.119880         0.891084
 H         0.242056        -1.757873         1.868111
 H        -0.716713        -0.061519         1.907819
