19
Iteration:  4132charge 0 multiplicity 1
 O        -2.934641        -0.835449         1.485982
 C        -1.821543        -1.433953         0.922666
 C        -1.807382        -2.608510        -0.044847
 C        -1.760059        -1.215558        -0.588639
 O        -0.533112        -0.714635        -1.009172
 C         0.366484        -0.556615         0.054805
 C         1.431458         0.589052        -0.002864
 C         1.876544        -0.868337        -0.164788
 C        -0.492437        -0.862257         1.537172
 H        -3.528237        -1.477727         1.948224
 H        -0.896261        -3.183106        -0.041069
 H        -2.681002        -3.128658        -0.388991
 H        -2.540915        -0.889869        -1.192470
 H         1.320848         1.183700        -0.867525
 H         1.676723         1.070333         0.899277
 H         2.023036        -1.221862        -1.244629
 H         2.496385        -1.211077         0.718608
 H         0.009757        -1.568267         2.245682
 H        -0.724399         0.112754         2.032764
