19
Iteration:  1924
 O        -3.042162        -0.925714         1.520799
 C        -1.836544        -1.324047         0.913411
 C        -1.767257        -2.669525        -0.096451
 C        -1.747039        -1.179632        -0.577436
 O        -0.516166        -0.669786        -0.934318
 C         0.376040        -0.459094         0.162373
 C         1.430062         0.528859        -0.023898
 C         1.820040        -0.897354        -0.236825
 C        -0.404486        -0.879198         1.390579
 H        -3.145081        -1.561358         2.224750
 H        -0.826553        -3.196154        -0.126608
 H        -2.662422        -3.233464         0.054153
 H        -2.599499        -0.832168        -1.171824
 H         1.196173         1.368627        -0.817448
 H         1.851341         1.132289         0.806260
 H         1.949087        -1.560002        -1.185538
 H         2.414343        -1.240872         0.577515
 H         0.107628        -1.429541         2.176001
 H        -0.617843         0.051929         1.997533
