19
Iteration:  4241
 O        -2.988923        -0.982304         1.448870
 C        -1.843897        -1.383924         0.854435
 C        -1.835019        -2.672304         0.090960
 C        -1.688872        -1.171532        -0.595971
 O        -0.488818        -0.567129        -1.032780
 C         0.371107        -0.433427         0.128050
 C         1.439275         0.550130        -0.055176
 C         1.766072        -0.972833        -0.112595
 C        -0.441539        -0.778380         1.451582
 H        -3.247858        -1.781657         1.888919
 H        -0.828361        -3.115415         0.225992
 H        -2.729047        -3.296453         0.064700
 H        -2.626066        -0.946213        -1.253461
 H         1.460217         1.143767        -0.882044
 H         2.020232         1.095898         0.722519
 H         1.819712        -1.526067        -1.072956
 H         2.364338        -1.711939         0.588304
 H         0.083364        -1.428117         2.173590
 H        -0.692991         0.123062         2.048788
