19
Iteration:  3927
 O        -3.043011        -1.172437         1.521000
 C        -1.768930        -1.301526         0.900771
 C        -1.352600        -2.627329         0.056416
 C        -1.691775        -1.277204        -0.575470
 O        -0.655207        -0.336111        -1.042575
 C         0.251473        -0.318275         0.096322
 C         1.667369         0.284520         0.009483
 C         1.509433        -1.193133        -0.149989
 C        -0.610990        -0.500688         1.356817
 H        -2.971264        -1.326148         2.521555
 H        -0.442046        -3.237528         0.041566
 H        -2.191580        -3.242221        -0.235042
 H        -2.493300        -1.126480        -1.339753
 H         1.730747         0.753555        -1.020728
 H         1.965002         0.836443         0.836746
 H         1.711140        -1.622318        -1.133492
 H         1.791153        -1.713638         0.808048
 H         0.058544        -1.036185         2.073507
 H        -0.857494         0.472790         1.760079
