19
Iteration:  1488
 O        -2.842996        -0.855675         1.666443
 C        -1.760880        -1.361178         0.860650
 C        -1.979335        -2.544534        -0.105660
 C        -1.744970        -1.154046        -0.606454
 O        -0.366679        -0.888223        -1.088016
 C         0.358884        -0.598669         0.128254
 C         1.109582         0.609582        -0.034862
 C         1.864856        -0.750225        -0.058521
 C        -0.325649        -0.945209         1.385956
 H        -3.460131        -1.518650         2.016882
 H        -1.178595        -3.196515        -0.227303
 H        -2.965096        -2.933892        -0.157360
 H        -2.515027        -0.510812        -1.114486
 H         0.977870         1.111923        -1.009470
 H         1.241882         1.299560         0.888191
 H         2.193996        -1.034059        -1.012158
 H         2.403911        -1.121669         0.835745
 H         0.075424        -1.852043         2.015289
 H        -0.490670        -0.006159         1.979155
