19
Iteration:  1517charge 0 multiplicity 1
 O        -2.949059        -0.919945         1.626975
 C        -1.772895        -1.262443         0.855644
 C        -2.005564        -2.576318        -0.016505
 C        -1.828369        -1.192584        -0.661305
 O        -0.413050        -0.978005        -1.083299
 C         0.445242        -0.472657         0.133931
 C         1.355731         0.693654         0.020157
 C         1.841625        -0.685288        -0.111693
 C        -0.364229        -1.019723         1.351546
 H        -3.138480        -1.518701         2.344472
 H        -1.253507        -3.379655        -0.124377
 H        -3.113073        -2.993706         0.051315
 H        -2.553165        -0.767309        -1.232602
 H         1.351954         1.565936        -0.616262
 H         1.703101         1.311399         0.820273
 H         1.997700        -1.066352        -1.139512
 H         2.486766        -1.198790         0.639158
 H        -0.084569        -1.838630         1.928079
 H        -0.469648        -0.159025         2.066819
