19
Iteration:  4645
 O        -2.968926        -0.863392         1.552512
 C        -1.800650        -1.261000         0.867302
 C        -1.987915        -2.560424         0.116323
 C        -1.698337        -1.154733        -0.662296
 O        -0.351026        -0.798141        -1.174296
 C         0.404141        -0.658314         0.098942
 C         1.194225         0.631654         0.075188
 C         1.865969        -0.759774        -0.094110
 C        -0.421815        -1.041011         1.353711
 H        -2.717285        -1.213296         2.451304
 H        -1.186564        -3.329349         0.273684
 H        -3.022760        -2.978005         0.230788
 H        -2.589113        -0.883948        -1.395793
 H         1.068247         1.224220        -0.931174
 H         1.445498         1.078617         1.033972
 H         2.163821        -0.997572        -1.188234
 H         2.520662        -1.126986         0.743783
 H         0.122711        -1.861649         1.791785
 H        -0.165966        -0.274839         2.169613
