19
Iteration:  2452
 O        -3.005194        -0.959109         1.552396
 C        -1.836446        -1.313318         0.872425
 C        -1.897869        -2.643648        -0.025773
 C        -1.834293        -1.181780        -0.547502
 O        -0.484797        -0.786656        -1.064934
 C         0.387925        -0.523785         0.008617
 C         1.471961         0.592221         0.115254
 C         1.862685        -0.796512        -0.154592
 C        -0.379013        -0.865480         1.352028
 H        -3.030907        -1.444463         2.397715
 H        -0.946611        -3.230571        -0.064043
 H        -2.864921        -3.127520        -0.034905
 H        -2.655736        -0.448832        -1.099522
 H         1.340569         1.243911        -0.726027
 H         1.841402         1.096143         1.031713
 H         2.154974        -1.037782        -1.166156
 H         2.336856        -1.291656         0.768095
 H         0.089937        -1.639924         2.013203
 H        -0.540772         0.005295         1.929490
