19
Iteration:   884charge 0 multiplicity 1
 O        -2.870639        -0.873059         1.593865
 C        -1.754037        -1.289392         0.835764
 C        -2.012864        -2.610563         0.050010
 C        -1.706292        -1.225705        -0.591897
 O        -0.479879        -0.852156        -1.064170
 C         0.397460        -0.559390         0.089602
 C         1.212803         0.647604         0.074889
 C         1.920206        -0.652044        -0.180741
 C        -0.344130        -1.028369         1.354523
 H        -3.390279        -1.656488         1.884748
 H        -1.338255        -3.444895        -0.007484
 H        -3.110458        -2.932478        -0.050399
 H        -2.525054        -0.840030        -1.185733
 H         1.096625         1.313261        -0.782937
 H         1.234363         1.113392         1.033710
 H         2.176894        -0.786723        -1.238859
 H         2.532285        -1.114968         0.572927
 H         0.066293        -1.875970         1.955404
 H        -0.495102        -0.148792         2.058471
