19
Iteration:  4204
 O        -2.916959        -0.976791         1.650086
 C        -1.844288        -1.363411         0.843250
 C        -1.848365        -2.572325        -0.070038
 C        -1.800601        -1.114606        -0.623561
 O        -0.451056        -0.778060        -1.080478
 C         0.402788        -0.563820         0.084249
 C         1.339994         0.585523         0.018859
 C         1.854196        -0.951844        -0.013108
 C        -0.491227        -0.734105         1.322442
 H        -2.962571        -1.446584         2.491580
 H        -0.851510        -2.965235        -0.124426
 H        -2.625542        -3.286254        -0.330530
 H        -2.584357        -0.811009        -1.237712
 H         1.564267         1.139538        -0.972218
 H         1.397510         1.023147         0.979911
 H         2.229077        -1.220099        -0.985444
 H         2.120957        -1.326463         0.883299
 H         0.130072        -1.305328         1.988983
 H        -0.693486         0.256038         1.747649
