19
Iteration:  2327
 O        -2.952183        -0.861371         1.694126
 C        -1.844138        -1.382688         0.890092
 C        -1.809937        -2.567696        -0.165478
 C        -1.811736        -1.190269        -0.685082
 O        -0.489154        -0.734725        -0.984709
 C         0.396419        -0.581224         0.110280
 C         1.312975         0.588563        -0.016805
 C         1.858733        -0.914991        -0.097975
 C        -0.416160        -0.869921         1.375738
 H        -3.105335        -1.586476         2.360701
 H        -0.793400        -3.013454        -0.280035
 H        -2.729176        -3.121760        -0.471530
 H        -2.485037        -0.936158        -1.410988
 H         1.217578         1.262490        -0.871066
 H         1.714045         1.022511         1.009030
 H         2.249597        -1.234015        -1.085612
 H         2.458214        -1.282997         0.799854
 H         0.086833        -1.330236         2.157313
 H        -0.602802         0.184442         1.817354
