19
Iteration:  4307
 O        -2.976239        -1.123676         1.522251
 C        -1.710120        -1.296656         0.934732
 C        -1.557425        -2.623602        -0.029417
 C        -1.716827        -1.279992        -0.632596
 O        -0.624325        -0.444745        -1.067472
 C         0.355911        -0.418165         0.089578
 C         1.529048         0.409844         0.097432
 C         1.612909        -1.193956        -0.090046
 C        -0.581463        -0.479272         1.350651
 H        -2.986962        -1.397548         2.480565
 H        -0.641601        -3.202072        -0.199746
 H        -2.506789        -3.206112        -0.070367
 H        -2.600269        -1.063219        -1.368361
 H         1.647174         0.996706        -0.816738
 H         1.979474         0.882052         0.887307
 H         1.774119        -1.613466        -1.129954
 H         1.900742        -1.874522         0.785482
 H        -0.013577        -0.945636         2.178598
 H        -0.944183         0.514792         1.631419
