19
Iteration:  4137charge 0 multiplicity 1
 O        -2.925727        -0.844595         1.494129
 C        -1.802193        -1.454694         0.937353
 C        -1.821329        -2.586455        -0.050197
 C        -1.760413        -1.218560        -0.576888
 O        -0.530428        -0.691367        -1.058440
 C         0.376154        -0.577987         0.082183
 C         1.408299         0.568527        -0.002474
 C         1.881213        -0.839460        -0.132558
 C        -0.470138        -0.848469         1.502237
 H        -3.477536        -1.449713         2.020311
 H        -0.987921        -3.334429        -0.021072
 H        -2.759129        -3.137374        -0.281953
 H        -2.598089        -0.888976        -1.298505
 H         1.406114         1.122830        -0.999305
 H         1.753473         1.134909         0.924446
 H         1.958867        -1.223499        -1.108427
 H         2.370335        -1.200208         0.739034
 H        -0.103652        -1.593814         2.217963
 H        -0.811435         0.043291         2.020188
