19
Iteration:  1303charge 0 multiplicity 1
 O        -2.622118        -0.712565         1.677868
 C        -1.690484        -1.267735         0.869511
 C        -2.135750        -2.476872        -0.068646
 C        -1.696687        -1.131847        -0.742937
 O        -0.355016        -1.198742        -1.050480
 C         0.387396        -0.668461         0.030600
 C         0.810789         0.703745         0.087482
 C         1.861569        -0.494510        -0.043964
 C        -0.263507        -1.217675         1.379882
 H        -3.431602        -1.247410         1.697695
 H        -1.604922        -3.438498        -0.115114
 H        -3.162041        -2.625924        -0.208042
 H        -2.398068        -0.492255        -1.302413
 H         0.707362         1.265131        -0.926728
 H         0.653273         1.396906         0.986265
 H         2.556118        -0.594741        -0.981049
 H         2.381778        -0.840899         0.881090
 H         0.120481        -2.265805         1.808566
 H        -0.261003        -0.536536         2.281432
