19
Iteration:  3581charge 0 multiplicity 1
 O        -2.743027        -0.597578         1.615354
 C        -1.747703        -1.394903         0.862469
 C        -2.167911        -2.611678        -0.008209
 C        -1.697247        -1.334060        -0.677680
 O        -0.362292        -0.949203        -1.080910
 C         0.429133        -0.635614         0.029968
 C         1.014879         0.711879         0.217388
 C         1.904600        -0.575272        -0.024969
 C        -0.295501        -1.175042         1.234076
 H        -3.317234        -1.291057         2.066672
 H        -1.475584        -3.361944        -0.364983
 H        -3.228916        -2.755892        -0.113672
 H        -2.644116        -0.907014        -1.254447
 H         0.871331         1.316147        -0.725931
 H         0.808347         1.338416         1.078133
 H         2.316545        -0.572786        -1.054777
 H         2.483450        -0.931891         0.775452
 H         0.215965        -2.058139         1.690407
 H        -0.422741        -0.444834         2.056951
