19
Iteration:  4059
 O        -2.924499        -0.932328         1.586683
 C        -1.816550        -1.418742         0.906350
 C        -1.725822        -2.589089        -0.043728
 C        -1.846053        -1.214093        -0.655168
 O        -0.601697        -0.620439        -1.120706
 C         0.390459        -0.499669         0.101207
 C         1.540708         0.514204         0.011508
 C         1.747322        -0.977993         0.021283
 C        -0.466804        -0.769214         1.333717
 H        -3.039818        -1.416932         2.458548
 H        -0.724525        -3.082272        -0.183292
 H        -2.569912        -3.224049        -0.348409
 H        -2.677594        -0.972200        -1.349107
 H         1.606178         1.081279        -0.870812
 H         1.666552         1.100910         1.037994
 H         2.241652        -1.277264        -0.893790
 H         2.167154        -1.416537         0.941975
 H         0.021011        -1.222478         2.254090
 H        -0.966908         0.139506         1.691434
