19
Iteration:  4379
 O        -2.971326        -1.257664         1.589145
 C        -1.788990        -1.288735         0.823572
 C        -1.400529        -2.445612        -0.045524
 C        -1.754344        -1.135119        -0.580505
 O        -0.580506        -0.405950        -0.981075
 C         0.318173        -0.393754         0.109729
 C         1.545634         0.271081        -0.178465
 C         1.546514        -1.273069         0.101964
 C        -0.618285        -0.447165         1.315856
 H        -3.029897        -2.174577         1.964628
 H        -0.386328        -2.771770        -0.155588
 H        -2.183027        -3.187708        -0.075146
 H        -2.635788        -1.065637        -1.306210
 H         1.726421         0.599820        -1.184444
 H         2.037109         1.090102         0.501456
 H         1.680276        -2.071215        -0.601856
 H         1.797649        -1.596078         1.117395
 H        -0.158562        -0.834878         2.239028
 H        -1.013983         0.595072         1.515594
