19
Iteration:  4564
 O        -2.927859        -0.918906         1.610755
 C        -1.773239        -1.220947         0.773022
 C        -1.911707        -2.594997         0.081106
 C        -1.726415        -1.152223        -0.727146
 O        -0.420859        -0.780856        -1.065153
 C         0.372920        -0.602529         0.097325
 C         1.242603         0.583225         0.018270
 C         1.806435        -0.847192        -0.015596
 C        -0.382571        -0.914872         1.388833
 H        -2.912189        -1.752262         2.178367
 H        -1.238502        -3.468317         0.156261
 H        -2.975206        -2.738264         0.079923
 H        -2.505981        -0.729499        -1.419707
 H         1.283709         1.174259        -0.969001
 H         1.284343         1.297528         0.806949
 H         2.035118        -1.003116        -1.066605
 H         2.398722        -1.384344         0.746927
 H         0.179493        -1.825631         1.686070
 H        -0.316459         0.029388         1.982826
