19
Iteration:  2704
 O        -2.960130        -1.019831         1.639492
 C        -1.741028        -1.404038         0.823771
 C        -1.586070        -2.563653        -0.031642
 C        -1.755729        -1.190928        -0.697944
 O        -0.603870        -0.468390        -1.000277
 C         0.293183        -0.450860         0.092358
 C         1.479296         0.379828        -0.012055
 C         1.646130        -1.075605        -0.066812
 C        -0.511865        -0.650825         1.329902
 H        -3.184436        -1.677241         2.328472
 H        -0.536690        -2.968932         0.063000
 H        -2.384386        -3.355240        -0.006394
 H        -2.582201        -0.992023        -1.176392
 H         1.760071         0.871207        -0.922895
 H         1.858457         0.891147         0.920936
 H         2.083169        -1.444959        -1.029148
 H         2.218002        -1.676430         0.728562
 H        -0.095651        -1.253883         2.186883
 H        -0.820288         0.309440         1.726905
