19
Iteration:   587charge 0 multiplicity 1
 O        -2.929546        -1.163806         1.626132
 C        -1.690044        -1.345588         0.938306
 C        -1.451015        -2.624514        -0.023306
 C        -1.769420        -1.238161        -0.647271
 O        -0.722358        -0.373787        -1.060465
 C         0.305304        -0.355303         0.133117
 C         1.553367         0.317960        -0.147914
 C         1.529839        -1.118032         0.018098
 C        -0.493583        -0.514411         1.410475
 H        -3.376693        -1.996171         1.366455
 H        -0.459740        -2.999269        -0.204783
 H        -2.315919        -3.245388        -0.175865
 H        -2.684409        -1.018066        -1.220231
 H         1.577331         0.611015        -1.280410
 H         2.162955         1.036163         0.454456
 H         1.838141        -1.851558        -0.806457
 H         1.756100        -1.482312         0.979745
 H         0.094938        -0.944373         2.249944
 H        -0.794230         0.446891         1.717863
