19
Iteration:  3881
 O        -3.000115        -1.184303         1.594579
 C        -1.722163        -1.276132         0.845293
 C        -1.612057        -2.492473        -0.036963
 C        -1.743572        -1.137602        -0.608878
 O        -0.559686        -0.585701        -1.039820
 C         0.331683        -0.463166         0.161316
 C         1.411945         0.428200        -0.088133
 C         1.712962        -1.127714        -0.020123
 C        -0.536696        -0.507306         1.383636
 H        -2.761135        -2.032157         2.056713
 H        -0.780414        -3.172966        -0.328594
 H        -2.560767        -3.057822        -0.030502
 H        -2.620174        -1.002736        -1.386638
 H         1.487405         0.832594        -1.034313
 H         1.995623         0.903161         0.716231
 H         1.921252        -1.543689        -1.017073
 H         2.190804        -1.632445         0.887212
 H        -0.073893        -1.144746         2.176114
 H        -0.766005         0.499965         1.755195
