19
Iteration:  1901
 O        -2.906045        -0.959843         1.476857
 C        -1.767365        -1.371949         0.925568
 C        -1.641777        -2.535559         0.059048
 C        -1.720195        -1.163335        -0.675663
 O        -0.504727        -0.607842        -1.069327
 C         0.285813        -0.521856         0.161484
 C         1.369399         0.529183         0.009799
 C         1.646659        -0.987040        -0.172478
 C        -0.470153        -0.855808         1.477703
 H        -3.075199        -1.354903         2.381874
 H        -0.766489        -3.000981        -0.055570
 H        -2.501227        -3.079266        -0.130084
 H        -2.585319        -0.861043        -1.169801
 H         1.539073         1.044152        -0.989374
 H         1.497732         1.204426         0.791768
 H         1.593277        -1.270526        -1.219023
 H         2.275336        -1.619358         0.395023
 H        -0.007409        -1.620233         2.049513
 H        -0.637734        -0.070221         2.297815
