19
Iteration:  4170
 O        -2.877672        -1.020975         1.616727
 C        -1.819945        -1.266806         0.837854
 C        -1.875903        -2.519437         0.008609
 C        -1.779377        -1.160228        -0.698937
 O        -0.477700        -0.750309        -1.092164
 C         0.357312        -0.540231         0.085064
 C         1.328303         0.584582        -0.023636
 C         1.779615        -0.908536         0.033320
 C        -0.413585        -0.821446         1.330376
 H        -2.711783        -1.366321         2.485247
 H        -1.010859        -3.195625         0.082516
 H        -2.871102        -2.969627        -0.194069
 H        -2.481689        -1.014425        -1.570153
 H         1.724653         1.274175        -0.881879
 H         1.381634         1.172034         0.895513
 H         2.381510        -1.423675        -0.662316
 H         2.127081        -1.333578         0.927276
 H        -0.035900        -1.721287         1.834948
 H        -0.549933        -0.085971         2.113226
