19
Iteration:  4122
 O        -3.015470        -0.823321         1.491755
 C        -1.836340        -1.319265         0.862152
 C        -1.761089        -2.657014        -0.021762
 C        -1.721813        -1.222740        -0.576057
 O        -0.494304        -0.741102        -0.930962
 C         0.383352        -0.505945         0.153236
 C         1.406116         0.582343        -0.019132
 C         1.814561        -0.915162        -0.246623
 C        -0.497076        -0.898072         1.462874
 H        -3.510218        -1.626194         1.828516
 H        -0.743929        -3.009409        -0.098769
 H        -2.598717        -3.294733        -0.281038
 H        -2.587494        -0.743378        -0.972144
 H         1.310465         1.330723        -0.696714
 H         1.580927         1.011381         0.960314
 H         2.237952        -1.158521        -1.245015
 H         2.585576        -1.420842         0.414480
 H         0.219142        -1.482681         2.072081
 H        -0.606966         0.065314         1.972612
