19
Iteration:   588charge 0 multiplicity 1
 O        -2.932225        -1.167259         1.618750
 C        -1.695885        -1.348844         0.946285
 C        -1.453944        -2.621137        -0.022780
 C        -1.775579        -1.240345        -0.651026
 O        -0.720395        -0.379124        -1.056863
 C         0.311454        -0.352407         0.133204
 C         1.563161         0.324921        -0.153680
 C         1.527308        -1.112260         0.013246
 C        -0.491215        -0.517858         1.414259
 H        -3.375325        -1.997074         1.391856
 H        -0.461198        -3.029771        -0.191524
 H        -2.366357        -3.257902        -0.156576
 H        -2.682032        -1.004427        -1.221636
 H         1.594024         0.621787        -1.250784
 H         2.167172         1.031359         0.477762
 H         1.841535        -1.861034        -0.834510
 H         1.756836        -1.465232         0.996400
 H         0.080797        -0.939075         2.234038
 H        -0.755756         0.477260         1.719521
