19
Iteration:  3192charge 0 multiplicity 1
 O        -2.903549        -0.926622         1.641501
 C        -1.791265        -1.345695         0.874460
 C        -1.860367        -2.482470        -0.001765
 C        -1.781049        -1.137110        -0.657908
 O        -0.427137        -0.834779        -1.074950
 C         0.365240        -0.552606         0.108682
 C         1.269373         0.642880        -0.029692
 C         1.834288        -0.844247        -0.025979
 C        -0.474349        -0.966673         1.323964
 H        -2.988162        -1.642588         2.338649
 H        -1.029256        -3.154621        -0.220064
 H        -2.859333        -2.961587        -0.109347
 H        -2.506140        -0.715877        -1.371657
 H         1.300152         1.199597        -0.978971
 H         1.581972         1.138179         0.908741
 H         2.228016        -1.185826        -1.038856
 H         2.493109        -1.005562         0.783907
 H         0.042965        -1.768166         1.804476
 H        -0.528200        -0.083417         2.019203
