19
Iteration:  3384charge 0 multiplicity 1
 O        -2.789812        -0.664380         1.613199
 C        -1.756691        -1.374207         0.864354
 C        -2.089286        -2.540033        -0.092611
 C        -1.659161        -1.229183        -0.712732
 O        -0.335682        -1.009685        -1.051751
 C         0.397990        -0.672006         0.122710
 C         1.060492         0.707999         0.157876
 C         1.839265        -0.564890        -0.129182
 C        -0.362080        -1.171157         1.377547
 H        -3.331524        -1.363232         1.946171
 H        -1.490303        -3.424409         0.037355
 H        -3.162504        -2.739949        -0.024051
 H        -2.320857        -0.682113        -1.325934
 H         0.686466         1.284842        -0.692358
 H         1.138536         1.224952         1.075591
 H         2.161684        -0.759769        -1.209123
 H         2.631375        -0.858269         0.511621
 H         0.055982        -2.044726         1.899185
 H        -0.325731        -0.326064         2.043903
