19
Iteration:  2147
 O        -2.905422        -1.321570         1.588593
 C        -1.767199        -1.266755         0.849408
 C        -1.475190        -2.437780         0.010101
 C        -1.785054        -1.045152        -0.565010
 O        -0.527498        -0.477977        -1.046674
 C         0.305510        -0.445742         0.124332
 C         1.508191         0.322052        -0.094869
 C         1.533972        -1.276477        -0.044923
 C        -0.623949        -0.419080         1.341049
 H        -2.812744        -2.103968         2.161191
 H        -0.481143        -2.814268        -0.090335
 H        -2.204141        -3.185558        -0.032665
 H        -2.642018        -0.893613        -1.283492
 H         1.515886         0.924187        -0.954649
 H         1.946903         0.658618         0.781837
 H         1.740737        -1.665189        -1.010364
 H         1.937959        -1.564104         0.845288
 H        -0.142252        -0.817547         2.281447
 H        -1.102900         0.493042         1.491279
