19
Iteration:  2891charge 0 multiplicity 1
 O        -2.993104        -0.967603         1.461525
 C        -1.754660        -1.349228         0.931307
 C        -1.687901        -2.572904        -0.028443
 C        -1.702426        -1.148995        -0.602741
 O        -0.540544        -0.610721        -0.939991
 C         0.319160        -0.530122         0.071143
 C         1.388647         0.472584        -0.006619
 C         1.718244        -0.947467        -0.140269
 C        -0.452194        -0.799039         1.413056
 H        -3.326364        -1.524090         2.218795
 H        -0.815520        -3.264197        -0.034769
 H        -2.511549        -3.205956         0.222116
 H        -2.597086        -0.908096        -1.344928
 H         1.404283         1.271596        -0.838534
 H         1.653874         0.914575         0.906035
 H         1.889904        -1.244114        -1.215120
 H         2.089379        -1.645011         0.598163
 H         0.411975        -1.404243         1.920489
 H        -0.423669         0.178727         1.874152
