19
Iteration:  1781
 O        -3.061695        -1.262325         1.586774
 C        -1.835754        -1.409792         0.913223
 C        -1.408748        -2.539329        -0.009666
 C        -1.717717        -1.165937        -0.609164
 O        -0.672895        -0.302860        -0.925892
 C         0.328306        -0.327399         0.008082
 C         1.627623         0.303927        -0.166688
 C         1.554322        -1.261486        -0.012793
 C        -0.551482        -0.474398         1.305596
 H        -3.028145        -1.804645         2.378795
 H        -0.463378        -2.933343         0.230810
 H        -2.286414        -3.084878        -0.055704
 H        -2.596543        -1.103285        -1.364739
 H         2.109592         0.521117        -1.049409
 H         2.103028         0.937008         0.605775
 H         1.904804        -1.893198        -0.784425
 H         2.137130        -1.516101         0.895985
 H         0.044370        -0.688126         2.130247
 H        -0.957657         0.517065         1.595752
