19
Iteration:  2106charge 0 multiplicity 1
 O        -2.956385        -1.157927         1.592948
 C        -1.770920        -1.410122         0.838633
 C        -1.605514        -2.648792         0.070740
 C        -1.719498        -1.129733        -0.593883
 O        -0.651745        -0.368750        -1.060754
 C         0.305040        -0.396630         0.015965
 C         1.589507         0.443736         0.028490
 C         1.648482        -1.132888        -0.084399
 C        -0.537398        -0.621967         1.277050
 H        -2.898623        -1.622401         2.467659
 H        -0.703324        -3.219384         0.241710
 H        -2.475213        -3.216373        -0.126639
 H        -2.675079        -1.016550        -1.300717
 H         1.851308         0.952684        -0.837289
 H         1.856183         0.825096         1.042856
 H         1.954481        -1.836159        -0.889526
 H         1.915796        -1.560329         0.906902
 H         0.045166        -1.108337         2.030702
 H        -0.876336         0.404067         1.612475
