19
Iteration:   940
 O        -2.820737        -0.925953         1.665915
 C        -1.768295        -1.395604         0.838304
 C        -2.047753        -2.561115        -0.102866
 C        -1.767841        -1.147847        -0.636334
 O        -0.476315        -0.882108        -1.024171
 C         0.447346        -0.593679         0.106785
 C         1.145512         0.715888        -0.082730
 C         1.906747        -0.682120         0.032546
 C        -0.330986        -1.008226         1.308025
 H        -3.050364        -1.164230         2.595325
 H        -1.230106        -3.321353        -0.227494
 H        -3.148215        -2.884195        -0.205575
 H        -2.602431        -0.635842        -1.258591
 H         1.231178         0.960235        -1.073049
 H         1.166267         1.500206         0.603957
 H         2.480929        -0.895765        -0.842515
 H         2.383982        -1.123353         1.004118
 H         0.108817        -1.898284         1.818740
 H        -0.411196        -0.134147         2.053256
