19
Iteration:   993
 O        -2.894620        -0.773727         1.654081
 C        -1.808825        -1.222373         0.787243
 C        -1.866742        -2.648242        -0.055498
 C        -1.813996        -1.240329        -0.664170
 O        -0.346441        -0.952282        -0.962400
 C         0.362097        -0.572348         0.133600
 C         1.192777         0.655801         0.098609
 C         1.796434        -0.658535        -0.249724
 C        -0.331053        -1.057074         1.371792
 H        -3.408997        -1.513688         2.072444
 H        -0.846519        -3.083772        -0.151632
 H        -2.823621        -3.183778        -0.163011
 H        -2.607946        -0.522972        -1.077857
 H         1.069718         1.234800        -0.722795
 H         1.250729         0.971484         1.081893
 H         1.944185        -0.647009        -1.257191
 H         2.558827        -1.085939         0.394744
 H        -0.091947        -2.027029         1.868099
 H        -0.360420        -0.202404         2.129814
