19
Iteration:  3710
 O        -2.838815        -0.848010         1.681623
 C        -1.790385        -1.268088         0.868936
 C        -1.931917        -2.520848         0.002958
 C        -1.758566        -1.102156        -0.686954
 O        -0.357708        -0.987018        -1.172788
 C         0.269977        -0.543721         0.055984
 C         1.185225         0.633920         0.031809
 C         1.872282        -0.681186         0.032925
 C        -0.448299        -1.063930         1.319678
 H        -3.225184        -1.577392         2.123811
 H        -1.009171        -3.089947        -0.027584
 H        -2.635480        -3.386304        -0.084862
 H        -2.627986        -0.445089        -1.247456
 H         1.353152         1.295371        -0.793928
 H         1.457540         1.054559         1.003744
 H         2.192443        -1.068399        -1.008173
 H         2.384943        -1.095311         0.876653
 H         0.088799        -1.998482         1.661868
 H        -0.424615        -0.367381         2.148069
