19
Iteration:  1573
 O        -2.808842        -0.766819         1.540673
 C        -1.717586        -1.341748         0.911059
 C        -1.797014        -2.615695        -0.022497
 C        -1.822226        -1.260254        -0.727253
 O        -0.509057        -0.731899        -1.072838
 C         0.341044        -0.527635         0.126465
 C         1.175333         0.623425         0.041103
 C         1.810303        -0.881704        -0.122535
 C        -0.380813        -0.976049         1.443436
 H        -3.211161        -1.462392         2.116987
 H        -1.001764        -3.347744         0.060611
 H        -2.771804        -3.194278        -0.147650
 H        -2.742386        -0.856483        -1.067044
 H         1.169068         1.204001        -0.855081
 H         1.479746         1.094294         1.027896
 H         2.106189        -1.102107        -1.102498
 H         2.397107        -0.983926         0.825153
 H        -0.029104        -1.898674         1.818836
 H        -0.425820        -0.301991         2.334503
