19
Iteration:  3555charge 0 multiplicity 1
 O        -2.664941        -0.634559         1.593547
 C        -1.753463        -1.357674         0.820376
 C        -2.086040        -2.529262         0.007826
 C        -1.694076        -1.149915        -0.661015
 O        -0.351613        -1.118843        -1.112522
 C         0.318280        -0.575886         0.067985
 C         1.055525         0.797440         0.120218
 C         1.836725        -0.555804        -0.067294
 C        -0.374602        -1.301240         1.365738
 H        -3.414408        -1.276352         1.816216
 H        -1.152200        -3.134247        -0.001183
 H        -3.119148        -2.850893        -0.202630
 H        -2.538682        -0.799725        -1.099232
 H         0.771591         1.410363        -0.705293
 H         0.791617         1.166770         1.118277
 H         2.457006        -0.774699        -0.941749
 H         2.423801        -0.765159         0.918610
 H         0.110643        -2.343686         1.421169
 H        -0.488939        -1.101038         2.429835
