19
Iteration:  4591
 O        -2.901022        -0.677137         1.523976
 C        -1.804526        -1.451530         0.889975
 C        -1.911082        -2.709631        -0.017474
 C        -1.767261        -1.244707        -0.571932
 O        -0.519180        -0.798669        -1.064616
 C         0.389722        -0.531336         0.074612
 C         1.389589         0.669505         0.040016
 C         1.860829        -0.742123        -0.115365
 C        -0.421934        -1.055836         1.389339
 H        -3.448472        -1.403469         1.940341
 H        -1.113054        -3.455219        -0.095062
 H        -2.897205        -3.171664        -0.262893
 H        -2.666507        -0.692692        -0.975711
 H         1.212143         1.484663        -0.668297
 H         1.766676         1.016168         1.025866
 H         2.118972        -1.249374        -1.067221
 H         2.336680        -1.070330         0.820216
 H         0.345526        -1.556934         1.992431
 H        -0.565756        -0.089409         1.967180
