19
Iteration:  1556
 O        -2.865035        -0.803145         1.523492
 C        -1.740278        -1.353766         0.883053
 C        -1.882796        -2.619264         0.034141
 C        -1.675791        -1.173802        -0.568778
 O        -0.478627        -0.722885        -1.070364
 C         0.338522        -0.653386         0.100065
 C         1.182047         0.626187         0.037934
 C         1.803517        -0.754191        -0.101343
 C        -0.388441        -1.037777         1.336180
 H        -3.050292        -1.345213         2.342713
 H        -0.994993        -3.303363        -0.011251
 H        -2.837265        -3.094619        -0.078677
 H        -2.486566        -0.715288        -1.288751
 H         0.946378         1.065255        -0.956372
 H         1.354027         1.011418         1.028527
 H         2.125843        -1.069852        -1.154213
 H         2.298251        -1.306321         0.645442
 H         0.208724        -1.748475         2.054638
 H        -0.515625        -0.072113         1.811408
