19
Iteration:   784
 O        -2.925083        -0.907474         1.722534
 C        -1.767980        -1.405558         0.847220
 C        -2.014965        -2.621476        -0.077130
 C        -1.783855        -1.249814        -0.651900
 O        -0.462870        -0.784880        -1.066988
 C         0.355080        -0.530231         0.031122
 C         1.320975         0.680400        -0.054933
 C         1.919585        -0.739391         0.048188
 C        -0.320485        -0.907207         1.295075
 H        -3.177817        -1.718656         2.166261
 H        -1.188152        -3.401726        -0.245263
 H        -3.041090        -2.963552        -0.159683
 H        -2.743430        -0.822618        -0.850867
 H         1.285109         1.026701        -1.121368
 H         1.330715         1.509428         0.814144
 H         2.343543        -1.080308        -0.896926
 H         2.158781        -1.188973         1.054186
 H         0.347060        -1.627384         1.921152
 H        -0.416080         0.032133         1.878296
