19
Iteration:  1179
 O        -2.739432        -0.659371         1.645271
 C        -1.813875        -1.330135         0.846379
 C        -2.053499        -2.565108        -0.004744
 C        -1.652782        -1.252657        -0.649418
 O        -0.357863        -0.932879        -1.101849
 C         0.369610        -0.731638         0.021555
 C         0.958773         0.694540         0.084841
 C         1.911396        -0.533160        -0.067821
 C        -0.354681        -1.199623         1.342225
 H        -3.051692        -1.292870         2.329954
 H        -1.444802        -3.490054         0.057342
 H        -3.187919        -2.857530        -0.050720
 H        -2.511575        -0.916060        -1.222555
 H         0.907676         1.311176        -0.789462
 H         0.943509         1.202255         0.986854
 H         2.418446        -0.789815        -1.059796
 H         2.574767        -0.767779         0.779986
 H        -0.018889        -2.188145         1.646519
 H        -0.252461        -0.313197         2.048459
