19
Iteration:    34
 O        -2.898549        -1.127321         1.713075
 C        -1.828954        -1.303820         0.826105
 C        -1.352654        -2.662990         0.113223
 C        -1.602665        -1.375726        -0.673564
 O        -0.722413        -0.340516        -1.052058
 C         0.185713        -0.385673         0.027323
 C         1.584395         0.389215        -0.080825
 C         1.420682        -1.145803        -0.048586
 C        -0.567453        -0.460189         1.276216
 H        -2.831066        -1.835708         2.352844
 H        -0.374880        -3.072526         0.296482
 H        -2.017474        -3.406899        -0.389766
 H        -2.431559        -1.449924        -1.330769
 H         1.898806         0.852042        -1.026778
 H         1.872798         0.880441         0.844926
 H         1.810229        -1.566495        -0.887397
 H         2.011590        -1.583054         0.823752
 H        -0.080657        -1.074747         2.053030
 H        -0.818039         0.504199         1.709947
