19
Iteration:   536charge 0 multiplicity 1
 O        -2.869391        -1.426683         1.795296
 C        -1.839785        -1.237025         0.890450
 C        -1.467553        -2.550727         0.053193
 C        -1.716540        -1.287398        -0.646286
 O        -0.620187        -0.412833        -1.138386
 C         0.292673        -0.281184         0.067820
 C         1.635095         0.303019        -0.013707
 C         1.572546        -1.213315        -0.098522
 C        -0.661935        -0.317552         1.278449
 H        -3.711437        -1.023142         1.544571
 H        -0.480556        -3.071439         0.157449
 H        -2.428447        -3.243625         0.022276
 H        -2.568501        -1.077797        -1.299522
 H         1.932456         0.807449        -0.923795
 H         1.987538         0.838318         0.875927
 H         1.636144        -1.554020        -1.239980
 H         1.955379        -1.941012         0.608177
 H        -0.104511        -0.687684         2.110506
 H        -0.971163         0.800685         1.565493
