19
Iteration:   345
 O        -2.866528        -0.846977         1.581654
 C        -1.797072        -1.379433         0.857670
 C        -1.862777        -2.745253         0.012847
 C        -1.784392        -1.303822        -0.519224
 O        -0.596098        -0.683160        -1.010148
 C         0.339482        -0.480661         0.099790
 C         1.294337         0.635967        -0.191130
 C         1.885779        -0.758596        -0.002382
 C        -0.300287        -0.949638         1.397910
 H        -3.741291        -1.238976         1.428085
 H        -0.969983        -3.202892        -0.122592
 H        -2.829206        -3.170516        -0.064614
 H        -2.595528        -0.903322        -1.185505
 H         1.161114         0.949479        -1.225243
 H         1.607618         1.441648         0.495864
 H         2.294785        -1.348430        -0.884619
 H         2.346073        -0.961305         0.854862
 H         0.403422        -1.747829         1.874523
 H        -0.388041        -0.147286         2.127405
