19
Iteration:  3379charge 0 multiplicity 1
 O        -2.795802        -0.694501         1.602485
 C        -1.756173        -1.341601         0.873185
 C        -2.119495        -2.506337        -0.070219
 C        -1.712753        -1.259430        -0.717328
 O        -0.306430        -0.984192        -1.054705
 C         0.441766        -0.670433         0.173458
 C         1.027968         0.685951         0.123340
 C         1.856830        -0.552493        -0.131314
 C        -0.329496        -1.167762         1.365707
 H        -3.342938        -1.430132         2.015286
 H        -1.428961        -3.382678         0.000038
 H        -3.186803        -2.783760        -0.234171
 H        -2.430920        -0.641117        -1.339824
 H         0.719295         1.258610        -0.753724
 H         1.046019         1.170880         1.150333
 H         2.128094        -0.967498        -1.101583
 H         2.726874        -0.913209         0.488032
 H         0.141097        -2.022424         1.872961
 H        -0.437128        -0.277769         2.038010
