19
Iteration:  4677
 O        -2.845549        -0.782145         1.627546
 C        -1.816871        -1.374654         0.865574
 C        -2.026563        -2.627601        -0.190172
 C        -1.818225        -1.155615        -0.566183
 O        -0.425498        -0.985924        -1.034012
 C         0.351156        -0.605173         0.069256
 C         1.313275         0.722425        -0.011788
 C         1.873119        -0.722082         0.019759
 C        -0.383498        -0.953229         1.352425
 H        -3.142073        -1.417448         2.311977
 H        -1.084294        -3.211416        -0.322502
 H        -3.030895        -3.087748        -0.077240
 H        -2.653413        -0.614529        -1.178085
 H         1.373425         1.355330        -0.974375
 H         1.525108         1.277382         0.890777
 H         2.454787        -1.169507        -0.892769
 H         2.470558        -1.111335         0.884536
 H         0.174925        -1.729579         1.728663
 H        -0.471735        -0.007613         1.967031
