19
Iteration:  2101charge 0 multiplicity 1
 O        -2.915755        -1.118390         1.576134
 C        -1.777493        -1.414321         0.832020
 C        -1.594666        -2.636822         0.093252
 C        -1.692244        -1.127484        -0.636807
 O        -0.643145        -0.351859        -1.034643
 C         0.285973        -0.452397         0.025989
 C         1.517686         0.416813         0.022807
 C         1.661059        -1.109830        -0.060936
 C        -0.535502        -0.669284         1.274287
 H        -2.923510        -1.563827         2.418204
 H        -0.698077        -3.240456         0.314056
 H        -2.465049        -3.318757        -0.127779
 H        -2.543204        -0.867638        -1.096678
 H         1.740846         1.024269        -0.919209
 H         1.796344         0.840293         0.980962
 H         1.758181        -1.620546        -1.019021
 H         1.901026        -1.571749         0.887911
 H         0.089366        -1.134820         2.101862
 H        -0.908138         0.314832         1.483924
