19
Iteration:  4787
 O        -2.760615        -0.737936         1.420819
 C        -1.719587        -1.398330         0.837064
 C        -2.010994        -2.641437         0.073948
 C        -1.702065        -1.235301        -0.603443
 O        -0.464432        -0.776076        -1.091789
 C         0.329473        -0.636976         0.121062
 C         1.200369         0.687982         0.064165
 C         1.842693        -0.728229        -0.096876
 C        -0.422316        -1.071081         1.426850
 H        -2.866895        -0.863408         2.383538
 H        -1.368437        -3.510548        -0.110630
 H        -3.091631        -2.878953        -0.007094
 H        -2.585681        -0.837067        -1.239432
 H         1.132793         1.279441        -0.860238
 H         1.282029         1.105040         1.117151
 H         2.182124        -1.008400        -1.062358
 H         2.313980        -1.150004         0.828094
 H         0.092813        -1.952771         1.841370
 H        -0.504965        -0.269007         2.263211
