19
Iteration:   616
 O        -3.044512        -1.243829         1.573217
 C        -1.790917        -1.294381         0.897535
 C        -1.636820        -2.615162         0.144674
 C        -1.713063        -1.130955        -0.566155
 O        -0.543314        -0.509253        -1.040536
 C         0.351076        -0.372775         0.119216
 C         1.541531         0.412281        -0.103148
 C         1.695927        -1.071343        -0.179019
 C        -0.567361        -0.569037         1.344782
 H        -2.797377        -1.879535         2.256543
 H        -0.639891        -3.069353         0.010644
 H        -2.446509        -3.168971        -0.214197
 H        -2.563403        -0.875470        -1.209634
 H         1.640048         0.878185        -1.131579
 H         1.938974         0.919133         0.738770
 H         1.693443        -1.409965        -1.156503
 H         2.168755        -1.623798         0.618793
 H         0.006432        -1.035322         2.221302
 H        -0.978966         0.422312         1.751632
