19
Iteration:  4441charge 0 multiplicity 1
 O        -3.000209        -1.019853         1.490014
 C        -1.810589        -1.284054         0.900815
 C        -1.486376        -2.560413         0.088652
 C        -1.759547        -1.283071        -0.609170
 O        -0.576599        -0.407644        -1.106334
 C         0.313174        -0.541609         0.059505
 C         1.437353         0.374598         0.059888
 C         1.769313        -1.150490        -0.177237
 C        -0.590526        -0.629383         1.435119
 H        -2.982353        -1.368932         2.420870
 H        -0.426936        -2.774117         0.195951
 H        -2.132584        -3.426305        -0.059254
 H        -2.669054        -1.190494        -1.148254
 H         1.490722         1.090800        -0.735629
 H         1.702165         0.854055         1.113546
 H         1.757424        -1.293114        -1.209774
 H         2.308934        -1.785463         0.490704
 H        -0.150514        -1.292106         2.261337
 H        -0.960945         0.335009         1.733550
