19
Iteration:  1339charge 0 multiplicity 1
 O        -2.754278        -0.646549         1.684560
 C        -1.820133        -1.381528         0.827556
 C        -2.209992        -2.553486        -0.050907
 C        -1.687249        -1.266160        -0.654860
 O        -0.342413        -1.111954        -1.079272
 C         0.389343        -0.589090         0.103198
 C         1.025589         0.781167         0.049684
 C         1.967039        -0.465835        -0.096164
 C        -0.320369        -1.273411         1.361583
 H        -3.311520        -1.340021         2.045189
 H        -1.634403        -3.438532        -0.005319
 H        -3.303010        -2.642342        -0.180617
 H        -2.426791        -0.645471        -1.297252
 H         0.883528         1.401918        -0.828335
 H         1.151577         1.345215         0.982567
 H         2.579758        -0.526919        -0.986901
 H         2.420287        -0.717724         0.843249
 H         0.372703        -2.237052         1.340214
 H        -0.117830        -0.681120         2.224136
