19
Iteration:  2655
 O        -3.026902        -1.317471         1.567199
 C        -1.750072        -1.310354         0.977430
 C        -1.513164        -2.434865        -0.013372
 C        -1.739303        -1.130976        -0.600725
 O        -0.562074        -0.459896        -1.077603
 C         0.328301        -0.359913         0.074319
 C         1.638093         0.307390        -0.139697
 C         1.575434        -1.202445        -0.018457
 C        -0.629894        -0.468437         1.429684
 H        -3.059993        -2.025710         2.243812
 H        -0.569971        -2.711399        -0.353379
 H        -2.216360        -3.251403        -0.034150
 H        -2.703682        -0.804621        -1.301746
 H         1.727342         0.749632        -1.089081
 H         2.009880         0.918087         0.742071
 H         1.522521        -1.737900        -0.892366
 H         1.923927        -1.941214         0.652993
 H        -0.007381        -0.768773         2.270195
 H        -0.932336         0.618258         1.720092
