19
Iteration:  1574charge 0 multiplicity 1
 O        -2.808843        -0.766915         1.542884
 C        -1.714358        -1.337074         0.914641
 C        -1.795155        -2.616957        -0.027808
 C        -1.826402        -1.267576        -0.728869
 O        -0.514628        -0.737627        -1.067960
 C         0.336945        -0.517787         0.129343
 C         1.183033         0.633598         0.036075
 C         1.816830        -0.884726        -0.119228
 C        -0.387789        -0.976936         1.444682
 H        -3.228585        -1.468878         2.112195
 H        -1.020308        -3.339315         0.064444
 H        -2.711023        -3.162880        -0.154977
 H        -2.774300        -0.842968        -1.107253
 H         1.202199         1.195431        -0.867881
 H         1.485660         1.047230         1.029522
 H         2.119779        -1.086854        -1.104355
 H         2.389098        -0.999548         0.788801
 H        -0.028025        -1.932108         1.813144
 H        -0.424382        -0.312382         2.336759
