19
Iteration:  3722
 O        -2.819995        -0.818578         1.620280
 C        -1.825516        -1.271648         0.779359
 C        -1.876972        -2.525719        -0.005093
 C        -1.757933        -1.193757        -0.654058
 O        -0.458836        -0.903574        -1.082585
 C         0.353802        -0.598136         0.094866
 C         1.211435         0.635290         0.056059
 C         1.813011        -0.746112         0.010308
 C        -0.370031        -1.042070         1.330305
 H        -3.069242        -1.644829         2.118727
 H        -0.888901        -2.952675        -0.109622
 H        -2.869650        -2.991481        -0.138292
 H        -2.650345        -0.740208        -1.318849
 H         1.119159         1.240142        -0.822243
 H         1.074280         1.271712         0.989218
 H         2.140383        -1.069023        -0.991089
 H         2.551008        -0.979253         0.793982
 H        -0.028777        -2.022144         1.750708
 H        -0.298170        -0.245057         2.083458
