19
Iteration:  1219
 O        -2.695495        -0.669647         1.498321
 C        -1.710193        -1.351790         0.928570
 C        -2.111813        -2.522587        -0.009678
 C        -1.681127        -1.194134        -0.593584
 O        -0.373514        -1.122903        -1.027699
 C         0.378335        -0.608252         0.039547
 C         0.950314         0.775258         0.127059
 C         1.830728        -0.512658        -0.102854
 C        -0.346212        -1.301358         1.289757
 H        -2.744496        -0.880163         2.444055
 H        -1.334760        -3.275788        -0.127424
 H        -3.150462        -2.848968        -0.013743
 H        -2.195518        -0.451208        -1.391312
 H         0.961101         1.492841        -0.745217
 H         0.850087         1.239938         1.142521
 H         2.182413        -0.552435        -1.144376
 H         2.333192        -0.907138         0.670669
 H        -0.016005        -2.341372         1.590079
 H        -0.303164        -0.808423         2.196214
