19
Iteration:  4153charge 0 multiplicity 1
 O        -2.942975        -0.911369         1.563533
 C        -1.767009        -1.339451         0.811952
 C        -1.894191        -2.640488         0.018842
 C        -1.706616        -1.206738        -0.640273
 O        -0.483285        -0.658237        -1.063679
 C         0.378943        -0.519519         0.122052
 C         1.336044         0.585394        -0.007550
 C         1.804949        -0.928860        -0.000697
 C        -0.432077        -0.884178         1.321389
 H        -3.011469        -1.539352         2.279065
 H        -1.092498        -3.340792        -0.060171
 H        -2.915701        -2.986847         0.028409
 H        -2.545886        -0.716028        -1.013899
 H         1.225032         1.019801        -0.976351
 H         1.526786         1.222859         0.822173
 H         2.181624        -1.245863        -1.032260
 H         2.364992        -1.264722         0.941995
 H         0.206965        -1.516563         1.953168
 H        -0.572416         0.097408         1.848064
