19
Iteration:  3902
 O        -3.036003        -1.210032         1.573314
 C        -1.814409        -1.283223         0.876848
 C        -1.490703        -2.486800         0.012313
 C        -1.777914        -1.193978        -0.630819
 O        -0.588637        -0.401864        -0.998194
 C         0.333821        -0.559594         0.115395
 C         1.550149         0.340946        -0.086802
 C         1.697980        -1.146275        -0.098354
 C        -0.604351        -0.540787         1.341878
 H        -2.858665        -1.605015         2.469713
 H        -0.412092        -2.739585         0.209478
 H        -2.027213        -3.457164        -0.052378
 H        -2.647323        -0.812511        -1.333846
 H         1.676469         0.845965        -0.975736
 H         1.667680         0.930060         0.870596
 H         1.800707        -1.664884        -1.053237
 H         2.135467        -1.510959         0.884168
 H        -0.085057        -0.899877         2.260036
 H        -0.813299         0.551002         1.451763
