19
Iteration:  3311
 O        -2.755530        -0.800451         1.594784
 C        -1.763779        -1.362787         0.825752
 C        -2.114294        -2.555320        -0.141706
 C        -1.760826        -1.220285        -0.670623
 O        -0.384106        -0.942698        -0.982684
 C         0.381266        -0.608377         0.110190
 C         1.173990         0.684867         0.007388
 C         1.883397        -0.638097         0.000576
 C        -0.373839        -1.059413         1.331135
 H        -2.995235        -1.431597         2.297578
 H        -1.430224        -3.342746        -0.171686
 H        -3.126438        -2.619808         0.158100
 H        -2.569785        -0.613010        -1.063211
 H         0.957730         1.184669        -0.941624
 H         1.200985         1.354666         0.799919
 H         2.380717        -0.952896        -0.890286
 H         2.418691        -0.985860         0.858652
 H         0.075005        -1.950771         1.822621
 H        -0.588867        -0.236509         2.080774
