19
Iteration:  1057charge 0 multiplicity 1
 O        -2.861296        -0.802445         1.579212
 C        -1.754886        -1.412368         0.910985
 C        -2.019872        -2.609013        -0.000346
 C        -1.814765        -1.234013        -0.604580
 O        -0.475549        -0.955709        -1.104429
 C         0.320447        -0.485686         0.055766
 C         1.324701         0.774062         0.019313
 C         1.878362        -0.629341        -0.040096
 C        -0.344428        -1.142769         1.317084
 H        -2.802095        -1.110423         2.497031
 H        -1.356627        -3.519251        -0.218655
 H        -3.039752        -2.944310        -0.125334
 H        -2.652215        -0.659287        -1.184390
 H         1.346968         1.484049        -0.814440
 H         1.318826         1.330524         0.999169
 H         2.375750        -0.955784        -0.844051
 H         2.313881        -0.983303         0.885755
 H         0.344332        -1.974519         1.581655
 H        -0.346083        -0.265091         2.025191
