19
Iteration:  1752
 O        -2.913406        -1.200947         1.497748
 C        -1.733905        -1.274372         0.859105
 C        -1.380624        -2.540806         0.069361
 C        -1.743049        -1.207654        -0.606005
 O        -0.638594        -0.405446        -1.088858
 C         0.274191        -0.359759         0.136311
 C         1.581061         0.321867         0.004735
 C         1.449457        -1.215511        -0.167703
 C        -0.607021        -0.513763         1.417736
 H        -2.787611        -1.670226         2.363768
 H        -0.430722        -3.001439         0.060987
 H        -2.288117        -3.159930         0.156962
 H        -2.641734        -1.148558        -1.095557
 H         1.625279         0.955276        -0.867339
 H         2.158724         0.592456         0.913682
 H         1.458395        -1.819920        -1.020622
 H         1.980120        -1.739257         0.670618
 H        -0.109869        -0.874095         2.384389
 H        -1.031846         0.465515         1.620686
