19
Iteration:  1608charge 0 multiplicity 1
 O        -2.985698        -0.924143         1.638486
 C        -1.818020        -1.371746         0.857224
 C        -1.921647        -2.646704         0.101024
 C        -1.742179        -1.201998        -0.592516
 O        -0.411713        -0.710619        -1.147137
 C         0.394800        -0.513834         0.077956
 C         1.338744         0.664025         0.028019
 C         1.855258        -0.853475        -0.140508
 C        -0.445232        -0.914400         1.321746
 H        -3.296165        -1.666528         2.203750
 H        -1.129132        -3.323877         0.345236
 H        -2.838500        -3.010490        -0.187765
 H        -2.549010        -0.602689        -1.171829
 H         1.268528         1.381895        -0.832891
 H         1.681610         1.106912         0.946109
 H         2.362403        -1.218703        -1.055834
 H         2.463264        -1.317154         0.586736
 H         0.164314        -1.709355         1.826711
 H        -0.522888        -0.016317         1.940522
