19
Iteration:  4637
 O        -2.946193        -0.817675         1.519576
 C        -1.777626        -1.280719         0.824069
 C        -1.911293        -2.578941         0.138165
 C        -1.661249        -1.149034        -0.648266
 O        -0.372152        -0.776875        -1.150637
 C         0.426965        -0.651149         0.125151
 C         1.173789         0.577593         0.082329
 C         1.748678        -0.784844        -0.148937
 C        -0.376951        -1.043407         1.366093
 H        -2.899778        -1.171674         2.436337
 H        -1.234950        -3.427306         0.363797
 H        -2.927668        -2.956174         0.205369
 H        -2.515960        -0.834112        -1.441662
 H         1.007070         1.502571        -0.676406
 H         1.481672         1.065606         1.048210
 H         1.954826        -1.092726        -1.159549
 H         2.348638        -0.883718         0.681341
 H        -0.069620        -2.093265         1.911305
 H        -0.325214        -0.261451         2.154356
