19
Iteration:  1211charge 0 multiplicity 1
 O        -2.723232        -0.633738         1.543057
 C        -1.728812        -1.371826         0.846292
 C        -2.007337        -2.517721        -0.024393
 C        -1.765885        -1.177370        -0.609973
 O        -0.384979        -1.105383        -1.071945
 C         0.339115        -0.681681         0.033338
 C         0.940594         0.711439         0.151349
 C         1.836985        -0.487327        -0.061250
 C        -0.303903        -1.278611         1.310932
 H        -2.694069        -0.764843         2.517043
 H        -1.150804        -3.183321        -0.212877
 H        -3.081286        -2.954824         0.186470
 H        -2.350107        -0.476392        -1.304562
 H         1.004864         1.373750        -0.681873
 H         0.868241         1.217361         1.052338
 H         2.297263        -0.613520        -1.075579
 H         2.571942        -0.833161         0.660684
 H        -0.089197        -2.274301         1.636098
 H        -0.180827        -0.627994         2.223477
