19
Iteration:  2525charge 0 multiplicity 1
 O        -2.993237        -1.032599         1.652325
 C        -1.809992        -1.337006         0.837948
 C        -1.709155        -2.607426        -0.062529
 C        -1.728846        -1.216797        -0.635435
 O        -0.598076        -0.539718        -1.044781
 C         0.323667        -0.427815         0.148870
 C         1.572077         0.473069        -0.086835
 C         1.744469        -0.972091        -0.079670
 C        -0.497239        -0.773574         1.427354
 H        -3.263448        -1.845858         2.069676
 H        -0.778531        -3.157915         0.062211
 H        -2.532892        -3.235728        -0.233512
 H        -2.722491        -0.888879        -1.207419
 H         1.689784         0.820391        -1.125362
 H         1.987112         1.157937         0.653290
 H         2.030499        -1.252717        -1.049922
 H         2.159583        -1.350892         0.790907
 H         0.053490        -1.516183         1.974409
 H        -0.720317         0.182445         2.052303
