19
Iteration:  1559
 O        -2.847302        -0.790341         1.528220
 C        -1.755888        -1.370726         0.840599
 C        -1.869359        -2.616497         0.037437
 C        -1.677447        -1.190933        -0.578158
 O        -0.478822        -0.702431        -1.094423
 C         0.330007        -0.661274         0.112267
 C         1.172162         0.603120         0.055234
 C         1.771107        -0.767719        -0.105164
 C        -0.356337        -1.017115         1.365305
 H        -3.091998        -1.349634         2.289416
 H        -0.928879        -3.240813        -0.060554
 H        -2.927894        -3.154536        -0.012225
 H        -2.460575        -0.749916        -1.149325
 H         0.873172         1.113046        -0.887237
 H         1.361320         1.183549         0.981060
 H         2.108005        -1.181685        -1.095545
 H         2.370286        -1.283191         0.708042
 H         0.215117        -1.715324         1.957636
 H        -0.479904        -0.070879         1.894369
