19
Iteration:  4679
 O        -2.827424        -0.786917         1.626053
 C        -1.811876        -1.382650         0.860198
 C        -2.041854        -2.623664        -0.188841
 C        -1.812036        -1.159665        -0.558902
 O        -0.409831        -0.987301        -1.054424
 C         0.340065        -0.595119         0.072909
 C         1.305115         0.712281        -0.013525
 C         1.863514        -0.727825         0.026785
 C        -0.377708        -0.942731         1.364485
 H        -3.217425        -1.401577         2.314107
 H        -1.096028        -3.200832        -0.356763
 H        -3.008892        -3.126593        -0.058496
 H        -2.665206        -0.535982        -1.173602
 H         1.348089         1.407875        -1.002741
 H         1.571705         1.368389         0.893562
 H         2.372076        -1.194586        -0.863597
 H         2.435096        -1.097201         0.878559
 H         0.172425        -1.791343         1.793399
 H        -0.508084        -0.005963         1.972466
