19
Iteration:  4165
 O        -2.884502        -0.999723         1.584423
 C        -1.811678        -1.289357         0.823300
 C        -1.907673        -2.554676         0.042652
 C        -1.765111        -1.171147        -0.692414
 O        -0.467800        -0.716921        -1.046379
 C         0.362724        -0.517469         0.021773
 C         1.330389         0.601997        -0.013952
 C         1.772091        -0.951847         0.031395
 C        -0.388381        -0.827600         1.340763
 H        -2.696384        -1.457626         2.456425
 H        -1.054660        -3.249004         0.080788
 H        -2.837322        -3.021360        -0.244015
 H        -2.462092        -0.862736        -1.504858
 H         1.435382         1.169660        -0.860230
 H         1.354849         1.251801         0.893582
 H         2.336954        -1.421661        -0.849464
 H         2.273916        -1.245359         1.073981
 H        -0.051784        -1.740545         1.901385
 H        -0.583949        -0.025392         2.096737
