19
Iteration:  3126
 O        -2.932340        -0.931459         1.658236
 C        -1.838347        -1.364159         0.871141
 C        -1.796863        -2.646628        -0.080631
 C        -1.676091        -1.321133        -0.673352
 O        -0.485084        -0.562796        -0.984426
 C         0.365598        -0.512855         0.119868
 C         1.362954         0.541084        -0.028491
 C         1.795414        -1.003332        -0.131904
 C        -0.500323        -0.727491         1.377739
 H        -3.152164        -1.580641         2.326724
 H        -0.832035        -3.302292        -0.136816
 H        -2.774550        -3.175802        -0.261865
 H        -2.579719        -0.849307        -1.173149
 H         1.284248         1.048405        -0.962914
 H         1.818743         1.219593         0.821686
 H         2.013394        -1.136611        -1.179439
 H         2.459108        -1.445473         0.675073
 H        -0.058601        -1.308190         2.169809
 H        -0.859501         0.263812         1.791592
