19
Iteration:  4745charge 0 multiplicity 1
 O        -2.951871        -0.800905         1.665576
 C        -1.914060        -1.327560         0.927905
 C        -1.899133        -2.513153        -0.032134
 C        -1.752331        -1.132594        -0.627926
 O        -0.384356        -1.018660        -1.065717
 C         0.423697        -0.581460         0.022784
 C         1.279949         0.677387         0.033990
 C         1.969024        -0.668635        -0.139840
 C        -0.483247        -1.069804         1.369247
 H        -3.616732        -1.449149         1.859406
 H        -1.019005        -3.121278         0.111358
 H        -2.883793        -2.955199        -0.142527
 H        -2.500431        -0.694923        -1.369786
 H         1.379803         1.157352        -0.933524
 H         1.445929         1.001966         1.121951
 H         2.306394        -0.837097        -1.097435
 H         2.676704        -1.005427         0.610882
 H        -0.208687        -1.954363         1.819013
 H        -0.496227        -0.233827         2.077696
