19
Iteration:  1223
 O        -2.703211        -0.670604         1.496338
 C        -1.734020        -1.350404         0.907003
 C        -2.156755        -2.522334        -0.001636
 C        -1.648709        -1.195440        -0.606842
 O        -0.348788        -1.135481        -1.012761
 C         0.394380        -0.593767         0.065029
 C         0.959736         0.813570         0.117553
 C         1.820773        -0.510318        -0.125605
 C        -0.319118        -1.315082         1.301719
 H        -2.788804        -0.979102         2.435079
 H        -1.482945        -3.404224        -0.085523
 H        -3.298335        -2.824687        -0.153490
 H        -2.370745        -0.543878        -1.195559
 H         0.846469         1.466031        -0.702156
 H         0.923873         1.207222         1.081320
 H         2.168352        -0.549179        -1.162773
 H         2.332840        -1.003798         0.771562
 H         0.183463        -2.271074         1.399922
 H        -0.276344        -0.712637         2.284755
