19
Iteration:   896
 O        -2.845752        -0.857506         1.657732
 C        -1.800207        -1.335686         0.914689
 C        -1.937633        -2.515461        -0.016249
 C        -1.703901        -1.246976        -0.650494
 O        -0.400219        -0.862683        -1.056497
 C         0.320764        -0.600836         0.053269
 C         1.158830         0.704327         0.030841
 C         1.812741        -0.717948        -0.089216
 C        -0.362028        -1.021791         1.326250
 H        -3.213696        -1.694103         2.016763
 H        -1.117996        -3.196544         0.089386
 H        -3.003640        -2.872039        -0.309449
 H        -2.535973        -0.715386        -1.191106
 H         1.138665         1.139974        -0.935578
 H         1.343823         1.338336         0.810531
 H         2.165659        -0.904540        -1.093882
 H         2.506826        -1.138363         0.707659
 H         0.205568        -1.929221         1.579455
 H        -0.225298        -0.284846         2.181913
