19
Iteration:  4988
 O        -2.717755        -0.675343         1.529978
 C        -1.769398        -1.295068         0.820528
 C        -2.042966        -2.613797         0.104489
 C        -1.675575        -1.333256        -0.679360
 O        -0.362420        -0.878522        -1.088619
 C         0.327343        -0.605235         0.123279
 C         1.106616         0.662441         0.206944
 C         1.792598        -0.652986        -0.180214
 C        -0.373403        -1.130402         1.365778
 H        -3.614916        -0.747747         1.104070
 H        -1.431833        -3.445875         0.505107
 H        -3.171577        -2.695490         0.121451
 H        -2.471474        -0.868753        -1.393730
 H         1.182714         1.425664        -0.535414
 H         1.268963         1.050445         1.305858
 H         2.072716        -0.868160        -1.200620
 H         2.682739        -1.259444         0.289478
 H        -0.055575        -2.116664         1.629292
 H        -0.359706        -0.583240         2.275847
