19
Iteration:  4870
 O        -2.804028        -0.813398         1.676736
 C        -1.788607        -1.335238         0.881824
 C        -2.111446        -2.586271        -0.157885
 C        -1.714821        -1.178678        -0.607863
 O        -0.401087        -1.062650        -1.039685
 C         0.454706        -0.612691         0.084295
 C         1.228756         0.638955        -0.008098
 C         1.888725        -0.640317        -0.101250
 C        -0.429999        -0.935227         1.417888
 H        -3.610266        -1.312709         1.559889
 H        -1.356000        -3.389919        -0.411300
 H        -3.220522        -2.812936        -0.249928
 H        -2.496284        -0.353625        -0.912222
 H         1.205589         1.352579        -0.870371
 H         1.283780         1.208798         0.906079
 H         2.401615        -1.012512        -1.028173
 H         2.694369        -0.933323         0.727344
 H        -0.006300        -1.489442         2.323075
 H        -0.742287        -0.051345         1.959863
