19
Iteration:  3279
 O        -2.907999        -0.729110         1.629907
 C        -1.842139        -1.329750         0.804985
 C        -1.944398        -2.563316        -0.006407
 C        -1.686305        -1.215656        -0.604056
 O        -0.357756        -0.890629        -1.103074
 C         0.367843        -0.606111         0.039728
 C         1.162617         0.621261         0.134454
 C         1.896119        -0.683899        -0.123294
 C        -0.394987        -1.056058         1.322324
 H        -3.145802        -1.491904         2.158498
 H        -1.246812        -3.308638         0.227665
 H        -2.906604        -3.034577        -0.001422
 H        -2.548083        -0.787315        -1.096868
 H         0.878970         1.336760        -0.650791
 H         1.215156         0.946096         1.110117
 H         2.255026        -0.832674        -1.140263
 H         2.493631        -1.137739         0.628538
 H         0.004739        -2.019698         1.641119
 H        -0.258564        -0.339926         2.176274
