19
Iteration:  1029charge 0 multiplicity 1
 O        -2.830720        -0.763614         1.534101
 C        -1.761066        -1.338630         0.863461
 C        -2.003018        -2.670803         0.106055
 C        -1.682973        -1.209912        -0.626189
 O        -0.442722        -0.735394        -1.068368
 C         0.355536        -0.664893         0.105761
 C         1.138073         0.662833         0.028045
 C         1.859965        -0.651361        -0.123601
 C        -0.348897        -1.142214         1.334514
 H        -3.220283        -1.498715         2.058973
 H        -1.313977        -3.551434         0.130107
 H        -2.998800        -3.094191        -0.048175
 H        -2.530849        -0.725305        -1.065148
 H         1.050394         1.312600        -0.852310
 H         1.183931         1.372139         0.829542
 H         2.411772        -0.836497        -1.148601
 H         2.482658        -1.066853         0.708820
 H         0.140626        -2.001886         1.861591
 H        -0.328329        -0.333713         2.114261
