19
Iteration:  1510
 O        -2.888468        -0.918805         1.617146
 C        -1.813631        -1.320468         0.807043
 C        -1.985747        -2.515674        -0.003840
 C        -1.782023        -1.179690        -0.623612
 O        -0.401189        -0.983583        -1.033209
 C         0.370862        -0.518340         0.116484
 C         1.331713         0.771183         0.019719
 C         1.834654        -0.738031        -0.136494
 C        -0.390052        -1.000593         1.355660
 H        -3.132798        -1.650783         2.214016
 H        -1.271348        -3.277459        -0.070717
 H        -3.005128        -2.723773        -0.001108
 H        -2.606711        -0.739082        -1.244636
 H         1.431453         1.357839        -0.913337
 H         1.565991         1.204055         1.047987
 H         2.058108        -1.098822        -1.102309
 H         2.466727        -1.137236         0.669836
 H         0.083727        -1.923767         1.896027
 H        -0.552691        -0.149138         2.041203
