19
Iteration:  4190
 O        -2.983849        -0.974433         1.734360
 C        -1.829588        -1.283808         0.850023
 C        -1.780114        -2.543535        -0.056728
 C        -1.796937        -1.165766        -0.705624
 O        -0.461390        -0.814732        -1.176503
 C         0.337721        -0.526740         0.005663
 C         1.412357         0.551154         0.083900
 C         1.804784        -0.893421         0.067927
 C        -0.459968        -0.824920         1.298901
 H        -2.620258        -1.411543         2.526919
 H        -0.811537        -3.102091        -0.258519
 H        -2.705102        -3.202469        -0.073256
 H        -2.604769        -0.412490        -1.174374
 H         1.333271         1.112367        -0.934873
 H         1.570309         1.391687         0.793570
 H         2.256399        -1.289933        -0.860979
 H         2.457091        -1.312885         0.894104
 H        -0.124948        -1.587851         2.088946
 H        -0.702988         0.089341         1.840971
