19
Iteration:  3885
 O        -3.002556        -1.192816         1.593395
 C        -1.761028        -1.238687         0.841201
 C        -1.560275        -2.518492        -0.028912
 C        -1.749184        -1.131413        -0.615110
 O        -0.567985        -0.562429        -1.013816
 C         0.315163        -0.509736         0.141539
 C         1.441319         0.415374        -0.062869
 C         1.704001        -1.126134        -0.036098
 C        -0.535929        -0.496479         1.371540
 H        -2.782394        -1.978502         2.125885
 H        -0.719834        -3.110480        -0.382637
 H        -2.504237        -3.022242        -0.026181
 H        -2.580349        -1.031726        -1.310427
 H         1.306188         0.864528        -1.127710
 H         2.032710         0.897275         0.669103
 H         2.064807        -1.574765        -0.944299
 H         2.173952        -1.672348         0.804563
 H        -0.157760        -1.118054         2.194899
 H        -0.772477         0.511211         1.693396
