19
Iteration:   953charge 0 multiplicity 1
 O        -2.944526        -0.917992         1.619442
 C        -1.738198        -1.431758         0.897377
 C        -2.116686        -2.573392        -0.044445
 C        -1.710289        -1.162332        -0.572244
 O        -0.382429        -0.868370        -1.084227
 C         0.410152        -0.553713         0.007318
 C         1.169405         0.710459        -0.024475
 C         1.908433        -0.686331        -0.023637
 C        -0.297313        -1.016640         1.351095
 H        -2.657383        -1.417275         2.385803
 H        -1.579850        -3.559030        -0.340142
 H        -3.171314        -2.735837         0.053671
 H        -2.471462        -0.598167        -1.167125
 H         1.105766         1.288415        -0.964663
 H         1.083527         1.431228         0.822545
 H         2.384177        -1.024327        -1.009718
 H         2.418875        -1.126059         0.942936
 H         0.338832        -1.615164         1.991951
 H        -0.533518        -0.096321         1.927439
