19
Iteration:  1048charge 0 multiplicity 1
 O        -2.827452        -0.806888         1.534913
 C        -1.776798        -1.399858         0.888098
 C        -2.057502        -2.615585        -0.009402
 C        -1.849317        -1.299614        -0.608696
 O        -0.504455        -0.880008        -1.039224
 C         0.379861        -0.467709         0.061609
 C         1.245152         0.742919         0.034994
 C         1.936099        -0.663917        -0.021567
 C        -0.245932        -1.072225         1.265275
 H        -3.088180        -1.142045         2.398575
 H        -1.320279        -3.504815        -0.106602
 H        -3.118893        -2.857066         0.009786
 H        -2.752590        -0.918820        -1.183697
 H         1.210376         1.361967        -0.810277
 H         1.314516         1.322784         0.908980
 H         2.335077        -1.006016        -0.957844
 H         2.461856        -1.040986         0.863583
 H         0.210444        -2.019721         1.664825
 H        -0.328277        -0.484554         2.252530
