19
Iteration:  4935
 O        -2.837581        -0.748805         1.721566
 C        -1.773909        -1.332753         0.820795
 C        -1.962350        -2.545128         0.023635
 C        -1.722907        -1.173311        -0.643479
 O        -0.410240        -0.930108        -1.083320
 C         0.369748        -0.649525         0.071847
 C         1.123623         0.628301        -0.019616
 C         1.908517        -0.685007        -0.005036
 C        -0.376892        -1.090924         1.330985
 H        -3.608596        -0.642779         1.097701
 H        -1.211924        -3.328103        -0.250181
 H        -3.024020        -2.905616        -0.129953
 H        -2.457672        -0.662916        -1.380236
 H         0.969129         1.066034        -0.988414
 H         1.085934         1.248464         0.917366
 H         2.569886        -0.971871        -0.838760
 H         2.524507        -1.071183         0.974026
 H         0.070092        -2.000780         1.748653
 H        -0.544715        -0.285014         1.998356
