19
Iteration:  3975charge 0 multiplicity 1
 O        -3.041196        -1.201566         1.543681
 C        -1.801769        -1.276041         0.867243
 C        -1.365799        -2.504614         0.038365
 C        -1.648650        -1.250714        -0.598120
 O        -0.656786        -0.335978        -0.995576
 C         0.320248        -0.462072         0.105949
 C         1.588953         0.318916        -0.114925
 C         1.532320        -1.229472        -0.104090
 C        -0.591893        -0.471455         1.414172
 H        -3.391265        -1.952762         1.994762
 H        -0.354625        -2.890101         0.278960
 H        -2.028939        -3.376868        -0.072830
 H        -2.508857        -0.995454        -1.274559
 H         1.757854         0.742688        -1.077661
 H         2.148751         0.692533         0.840104
 H         1.645172        -1.664292        -1.081923
 H         1.771798        -1.803708         0.786637
 H        -0.054627        -0.768017         2.313540
 H        -1.038792         0.541207         1.521281
