19
Iteration:  3145charge 0 multiplicity 1
 O        -2.886695        -0.991825         1.596629
 C        -1.842983        -1.412528         0.796195
 C        -1.849086        -2.604475         0.025277
 C        -1.779902        -1.064335        -0.559255
 O        -0.522941        -0.710923        -1.051566
 C         0.377870        -0.579300         0.107095
 C         1.433534         0.560234        -0.044365
 C         1.847970        -0.839366        -0.089298
 C        -0.451008        -0.792411         1.347016
 H        -3.234146        -1.781757         1.998059
 H        -0.965677        -3.344121         0.058138
 H        -2.860812        -3.073122        -0.098176
 H        -2.603324        -0.817937        -1.237938
 H         1.321419         1.136198        -0.976407
 H         1.649540         1.071243         0.979430
 H         2.083601        -1.456729        -0.933216
 H         2.337457        -1.134792         0.905461
 H         0.044382        -1.344392         2.207710
 H        -0.863750         0.185747         1.682509
