19
Iteration:  2967
 O        -2.939030        -1.219265         1.600306
 C        -1.711610        -1.343648         0.858272
 C        -1.516596        -2.555103        -0.090577
 C        -1.817320        -1.133492        -0.660138
 O        -0.611315        -0.419733        -1.021213
 C         0.299387        -0.427615         0.078132
 C         1.568382         0.283307        -0.026676
 C         1.594599        -1.169336        -0.007694
 C        -0.550433        -0.430585         1.330793
 H        -3.047034        -1.704588         2.410238
 H        -0.509309        -2.940772        -0.223857
 H        -2.315038        -3.213455         0.101800
 H        -2.815961        -0.979317        -1.238250
 H         1.723079         0.901779        -0.836724
 H         1.852097         0.763691         0.952412
 H         1.625388        -1.920134        -0.768932
 H         1.920558        -1.588934         0.965336
 H         0.089474        -0.898018         2.174308
 H        -0.930309         0.535941         1.707303
