19
Iteration:  4368charge 0 multiplicity 1
 O        -2.916153        -1.306697         1.603360
 C        -1.784598        -1.218694         0.881974
 C        -1.426598        -2.450242        -0.034456
 C        -1.709291        -1.109238        -0.691763
 O        -0.604614        -0.393667        -0.978874
 C         0.246353        -0.502280         0.119665
 C         1.522664         0.271756        -0.219053
 C         1.572892        -1.324476         0.157675
 C        -0.627235        -0.334601         1.320586
 H        -3.073970        -2.213113         1.974653
 H        -0.382111        -2.683655        -0.085897
 H        -2.062349        -3.251319        -0.374178
 H        -2.621610        -0.943646        -1.405131
 H         1.771171         0.457099        -1.222209
 H         1.568918         0.984717         0.758925
 H         1.762377        -1.976700        -0.671713
 H         2.035066        -1.479740         1.141158
 H        -0.120750        -0.960308         2.062385
 H        -0.892685         0.701690         1.719277
