19
Iteration:  3738charge 0 multiplicity 1
 O        -2.903730        -0.804346         1.563708
 C        -1.741869        -1.336240         0.886648
 C        -1.915051        -2.617349        -0.044673
 C        -1.724643        -1.224642        -0.680829
 O        -0.442586        -0.751072        -1.031820
 C         0.384812        -0.615039         0.079754
 C         1.130908         0.655787         0.067132
 C         1.891983        -0.760605        -0.094779
 C        -0.382429        -1.013151         1.387277
 H        -3.158472        -1.320949         2.334829
 H        -1.379848        -3.579845        -0.006240
 H        -2.941513        -2.993337        -0.050211
 H        -2.440065        -0.868463        -1.270647
 H         1.091071         1.107264        -0.958796
 H         1.489610         1.193574         0.907540
 H         2.437895        -0.990504        -1.040785
 H         2.227921        -1.385350         0.722072
 H         0.140550        -1.808128         1.890564
 H        -0.459115        -0.118872         2.053512
