19
Iteration:  3855charge 0 multiplicity 1
 O        -2.936813        -1.062820         1.664270
 C        -1.766395        -1.435132         0.856103
 C        -1.802265        -2.604266        -0.030145
 C        -1.741269        -1.138081        -0.599957
 O        -0.500577        -0.658537        -1.074740
 C         0.299013        -0.405874         0.066011
 C         1.639284         0.537664        -0.085189
 C         1.647730        -0.953557         0.046781
 C        -0.524409        -0.697977         1.322787
 H        -3.231488        -2.001072         1.853159
 H        -0.970785        -3.232374        -0.264507
 H        -2.719756        -3.174750        -0.179357
 H        -2.519551        -0.715565        -1.057469
 H         1.465563         1.017405        -1.119035
 H         2.060690         1.128661         0.717552
 H         2.116947        -1.399349        -0.838466
 H         1.835562        -1.349992         0.998532
 H         0.024664        -1.226746         2.088274
 H        -0.894842         0.272945         1.755821
