19
Iteration:  4497charge 0 multiplicity 1
 O        -2.884435        -0.995340         1.465484
 C        -1.694031        -1.435788         0.829635
 C        -1.907768        -2.620744         0.070568
 C        -1.702955        -1.163069        -0.607147
 O        -0.486165        -0.629009        -1.032556
 C         0.331038        -0.504092         0.117635
 C         1.421998         0.488386        -0.062252
 C         1.749687        -0.897503        -0.067334
 C        -0.493872        -0.707735         1.431478
 H        -3.165856        -1.617588         2.125440
 H        -1.393667        -3.558534         0.096864
 H        -2.970014        -2.807336        -0.050331
 H        -2.678674        -0.725532        -1.165194
 H         1.476206         1.137930        -1.028322
 H         1.770792         1.130593         0.846361
 H         2.127061        -1.310076        -0.987975
 H         2.312701        -1.174541         0.753338
 H         0.080778        -1.548974         2.005261
 H        -0.885387        -0.038772         2.221976
