19
Iteration:   820charge 0 multiplicity 1
 O        -2.879602        -0.837275         1.556021
 C        -1.763197        -1.327714         0.846542
 C        -1.839269        -2.559611         0.042556
 C        -1.728972        -1.229936        -0.621011
 O        -0.452674        -0.765899        -1.114953
 C         0.336802        -0.556107         0.140955
 C         1.171859         0.624373         0.052625
 C         1.753708        -0.733710        -0.099503
 C        -0.370303        -1.103776         1.342754
 H        -2.591519        -1.108048         2.435068
 H        -0.886314        -3.110492         0.007892
 H        -2.771720        -3.179605        -0.012667
 H        -2.543820        -0.760021        -1.143896
 H         0.921949         1.225512        -0.793542
 H         1.462497         1.176917         0.802202
 H         2.163367        -1.203924        -1.017602
 H         2.359317        -1.072128         0.668265
 H         0.005774        -1.991128         1.752962
 H        -0.344337        -0.278670         2.080877
