19
Iteration:  1903
 O        -2.899156        -0.959076         1.470261
 C        -1.769300        -1.374130         0.911190
 C        -1.652880        -2.525034         0.056807
 C        -1.733951        -1.177800        -0.660647
 O        -0.502404        -0.626798        -1.053697
 C         0.303702        -0.535751         0.170240
 C         1.377269         0.534152         0.000493
 C         1.632637        -0.972658        -0.173327
 C        -0.476348        -0.837859         1.487463
 H        -3.100394        -1.342927         2.358799
 H        -0.699138        -3.031239        -0.080059
 H        -2.516924        -3.101893        -0.219753
 H        -2.624780        -0.797987        -1.169355
 H         1.579096         1.110067        -0.998512
 H         1.609886         1.244934         0.786758
 H         1.548540        -1.235598        -1.311822
 H         2.306549        -1.557801         0.420871
 H        -0.038301        -1.705168         2.037634
 H        -0.625465        -0.127628         2.303644
