19
Iteration:  2024
 O        -2.994454        -1.022231         1.538473
 C        -1.758074        -1.286928         0.851960
 C        -1.886115        -2.580815         0.012747
 C        -1.736447        -1.266508        -0.639432
 O        -0.556666        -0.553532        -0.982265
 C         0.371731        -0.559409         0.079634
 C         1.383045         0.478167        -0.026002
 C         1.871793        -0.887484        -0.131680
 C        -0.365571        -0.784379         1.383015
 H        -2.947302        -1.815704         2.125637
 H        -1.182902        -3.496895         0.053812
 H        -2.974991        -2.926007        -0.062860
 H        -2.700042        -1.044970        -1.132015
 H         1.423793         1.241728        -0.780410
 H         1.599143         1.100279         0.977176
 H         2.083459        -1.276739        -1.122269
 H         2.496547        -1.107269         0.853780
 H         0.098520        -1.515204         2.114920
 H        -0.457228         0.114536         2.005577
