19
Iteration:  2376
 O        -3.009910        -0.887547         1.543785
 C        -1.802561        -1.303075         0.895072
 C        -1.894996        -2.611779        -0.069781
 C        -1.739854        -1.217868        -0.551624
 O        -0.519201        -0.760372        -1.066243
 C         0.382019        -0.535071         0.057123
 C         1.351629         0.567124         0.082676
 C         1.849669        -0.833407        -0.106385
 C        -0.306956        -0.867717         1.352365
 H        -3.037250        -1.578954         2.216704
 H        -0.955566        -3.167483        -0.168625
 H        -2.897974        -3.006749        -0.043871
 H        -2.651381        -0.683335        -1.077004
 H         1.373438         1.261324        -0.819794
 H         1.457907         1.024935         0.997367
 H         2.147459        -1.208366        -1.108199
 H         2.248490        -1.236186         0.824881
 H         0.176122        -1.826332         1.764616
 H        -0.278129        -0.179341         2.156353
