19
Iteration:  3985charge 0 multiplicity 1
 O        -3.115202        -1.218334         1.596174
 C        -1.865835        -1.286547         0.935865
 C        -1.404741        -2.493139         0.053690
 C        -1.742153        -1.198558        -0.693848
 O        -0.605796        -0.402317        -0.961109
 C         0.331364        -0.369738         0.117851
 C         1.611786         0.343723        -0.123438
 C         1.612983        -1.269033        -0.088389
 C        -0.566713        -0.498667         1.352716
 H        -3.093341        -2.112187         1.929497
 H        -0.310132        -2.686773         0.107049
 H        -2.087723        -3.316020        -0.226742
 H        -2.530192        -1.199135        -1.482117
 H         1.900144         0.753573        -1.072610
 H         2.112464         0.972842         0.764515
 H         1.710835        -1.835410        -1.017444
 H         2.198962        -1.752421         0.677264
 H        -0.031346        -0.761236         2.267443
 H        -0.881990         0.547939         1.546321
