19
Iteration:  1725charge 0 multiplicity 1
 O        -3.054788        -1.119251         1.612043
 C        -1.871123        -1.270746         0.898486
 C        -1.432848        -2.542238        -0.008403
 C        -1.739176        -1.255247        -0.574277
 O        -0.574039        -0.461333        -1.025560
 C         0.304386        -0.418298         0.045366
 C         1.550457         0.371884         0.018888
 C         1.635223        -1.148483        -0.168023
 C        -0.498414        -0.551044         1.379351
 H        -3.053273        -1.890554         2.234632
 H        -0.390702        -3.003552        -0.036582
 H        -2.159488        -3.362066        -0.189034
 H        -2.680282        -1.143275        -1.233777
 H         1.575086         0.894843        -0.965506
 H         1.729711         0.873766         0.944004
 H         1.691077        -1.539191        -1.239898
 H         1.969164        -1.914238         0.513169
 H         0.028854        -0.934130         2.215017
 H        -0.849673         0.496594         1.582122
