19
Iteration:  4997charge 0 multiplicity 1
 O        -2.797708        -0.670855         1.570715
 C        -1.766171        -1.238185         0.777439
 C        -2.075111        -2.591430         0.144858
 C        -1.650564        -1.277934        -0.674302
 O        -0.397724        -0.857433        -1.104206
 C         0.415085        -0.693579         0.121457
 C         1.090808         0.665289         0.175896
 C         1.854464        -0.690147        -0.145575
 C        -0.322507        -1.176600         1.346453
 H        -3.586682        -0.910736         1.022475
 H        -1.423464        -3.408074         0.485912
 H        -3.075482        -2.948668        -0.183834
 H        -2.512232        -1.049963        -1.332896
 H         0.782960         1.391643        -0.600412
 H         1.244447         1.147814         1.210005
 H         1.909984        -0.653984        -1.209552
 H         2.549043        -0.984642         0.597013
 H         0.087708        -2.159433         1.636869
 H        -0.199009        -0.530703         2.257927
