19
Iteration:  2212
 O        -3.005612        -1.204884         1.528336
 C        -1.746160        -1.318859         0.888968
 C        -1.487990        -2.548387         0.048663
 C        -1.720272        -1.152604        -0.606238
 O        -0.634515        -0.376282        -1.091426
 C         0.263802        -0.383120         0.060319
 C         1.558362         0.368675        -0.039026
 C         1.533782        -1.226036        -0.084416
 C        -0.463900        -0.567825         1.416144
 H        -3.029985        -1.792780         2.326336
 H        -0.577129        -3.079626         0.268757
 H        -2.347549        -3.167896         0.050182
 H        -2.701734        -1.060254        -1.287355
 H         1.857765         0.946386        -0.815707
 H         1.939353         0.893553         0.862063
 H         1.685559        -1.519741        -1.091093
 H         1.915257        -1.796215         0.733052
 H         0.159016        -1.160160         2.218982
 H        -0.731051         0.390806         1.824657
