19
Iteration:  3121charge 0 multiplicity 1
 O        -2.954575        -0.925145         1.652296
 C        -1.867555        -1.404156         0.830370
 C        -1.717591        -2.609891        -0.066696
 C        -1.685448        -1.323854        -0.657783
 O        -0.504064        -0.549094        -1.008048
 C         0.338830        -0.498477         0.132215
 C         1.384643         0.524666        -0.011747
 C         1.767361        -1.008151        -0.125419
 C        -0.462588        -0.707139         1.411702
 H        -3.121474        -1.538926         2.410361
 H        -0.938262        -3.298097        -0.231062
 H        -2.701718        -3.029571        -0.143733
 H        -2.459120        -1.041695        -1.307970
 H         1.334970         0.975781        -1.061807
 H         1.728422         1.033117         0.815816
 H         1.887021        -1.194836        -1.211312
 H         2.467490        -1.420210         0.558606
 H         0.061090        -1.368084         2.184428
 H        -0.825198         0.208756         1.832250
