19
Iteration:  3625charge 0 multiplicity 1
 O        -2.899509        -0.755972         1.537183
 C        -1.805713        -1.288240         0.878510
 C        -1.972728        -2.554374        -0.076566
 C        -1.774433        -1.155785        -0.676765
 O        -0.346468        -1.033435        -0.988044
 C         0.391765        -0.553916         0.163297
 C         1.086204         0.744389         0.053595
 C         1.886306        -0.707249        -0.119776
 C        -0.309019        -1.154076         1.380996
 H        -2.976565        -1.212488         2.420059
 H        -1.099435        -3.191935        -0.214850
 H        -2.984661        -2.952961        -0.022922
 H        -2.378349        -0.358109        -1.390838
 H         0.718393         1.385608        -0.821008
 H         1.035967         1.258830         1.060816
 H         2.295048        -0.794533        -1.188475
 H         2.535356        -1.125241         0.566404
 H         0.060350        -2.199069         1.458926
 H        -0.106700        -0.744055         2.406991
