19
Iteration:  3420charge 0 multiplicity 1
 O        -2.765098        -0.589793         1.588436
 C        -1.775821        -1.345175         0.830398
 C        -2.093223        -2.542609        -0.028157
 C        -1.701284        -1.306124        -0.696058
 O        -0.419458        -1.031531        -1.074703
 C         0.355476        -0.623949         0.101844
 C         1.042615         0.723290         0.182299
 C         1.878653        -0.541034        -0.027474
 C        -0.214118        -1.255313         1.250111
 H        -3.542027        -1.087491         1.828872
 H        -1.430750        -3.436981         0.043780
 H        -3.064580        -2.954642         0.275683
 H        -2.468377        -0.664532        -1.304285
 H         0.741208         1.403866        -0.577654
 H         1.027841         1.190188         1.202737
 H         2.204540        -0.593802        -1.035236
 H         2.598401        -0.908071         0.780319
 H         0.216123        -2.316268         1.328405
 H        -0.037770        -0.592920         2.179219
