19
Iteration:  1981charge 0 multiplicity 1
 O        -2.835641        -0.944837         1.742544
 C        -1.790068        -1.271839         0.860046
 C        -1.764372        -2.507784        -0.140369
 C        -1.775408        -1.184650        -0.666478
 O        -0.494707        -0.833533        -1.110694
 C         0.256821        -0.488523         0.058084
 C         1.371852         0.585539         0.017188
 C         1.673799        -0.947224         0.016206
 C        -0.439116        -0.828217         1.347686
 H        -3.151882        -1.736454         2.259837
 H        -0.753762        -3.056773        -0.355415
 H        -2.548160        -3.303333        -0.349000
 H        -2.536809        -0.655312        -1.288104
 H         1.582059         1.244998        -0.831735
 H         1.612406         1.174454         1.034849
 H         1.986240        -1.151806        -1.022213
 H         2.209832        -1.267166         0.993549
 H         0.187125        -1.670091         1.811626
 H        -0.519318        -0.004094         2.030618
