19
Iteration:  4361
 O        -2.929426        -1.326160         1.640068
 C        -1.763370        -1.193781         0.855114
 C        -1.427906        -2.458521        -0.028599
 C        -1.738078        -1.114040        -0.760037
 O        -0.606197        -0.383132        -1.037269
 C         0.241398        -0.518185         0.086680
 C         1.506765         0.212059        -0.159693
 C         1.561801        -1.261395         0.190720
 C        -0.597178        -0.329291         1.371752
 H        -3.025423        -2.252639         1.999984
 H        -0.397571        -2.834198         0.013179
 H        -2.126415        -3.290910        -0.284796
 H        -2.611190        -0.762195        -1.432476
 H         1.608347         0.526686        -1.232673
 H         1.798435         0.856077         0.582020
 H         1.950864        -1.812517        -0.745980
 H         2.126473        -1.646387         1.101213
 H        -0.095234        -0.738969         2.250884
 H        -0.880250         0.676723         1.736246
