19
Iteration:  1253
 O        -2.729675        -0.642528         1.629052
 C        -1.785332        -1.342714         0.913768
 C        -2.287945        -2.533044        -0.066903
 C        -1.656303        -1.266978        -0.684282
 O        -0.316714        -1.088621        -1.022454
 C         0.513933        -0.690304         0.154239
 C         0.942628         0.776851         0.017297
 C         1.975463        -0.364840        -0.135981
 C        -0.320937        -1.352637         1.386532
 H        -3.438530        -1.172249         1.967089
 H        -1.789238        -3.482785        -0.240287
 H        -3.422151        -2.723021        -0.091604
 H        -2.488398        -0.771008        -1.332910
 H         0.571287         1.318380        -0.847079
 H         0.991987         1.311862         0.935852
 H         2.362492        -0.552161        -1.152660
 H         2.670890        -0.547348         0.610050
 H         0.190112        -2.292008         1.510447
 H        -0.276812        -0.704158         2.226034
