19
Iteration:  1653
 O        -2.939755        -0.984662         1.619615
 C        -1.734705        -1.370276         0.882074
 C        -1.786538        -2.565832        -0.057852
 C        -1.730643        -1.075138        -0.565920
 O        -0.474978        -0.773218        -1.086784
 C         0.353923        -0.459401         0.121234
 C         1.319307         0.557144        -0.036822
 C         1.763519        -0.952956        -0.102623
 C        -0.507633        -0.797765         1.369950
 H        -2.918896        -1.608693         2.394235
 H        -0.791412        -2.890359        -0.258892
 H        -2.431796        -3.341998        -0.051764
 H        -2.626253        -0.646961        -1.157687
 H         1.387809         1.072310        -0.996719
 H         1.589448         1.019982         0.899560
 H         2.033689        -1.559596        -1.016622
 H         2.364251        -1.225403         0.713551
 H        -0.022166        -1.454685         2.165392
 H        -0.890053         0.141096         1.762457
