19
Iteration:  2168charge 0 multiplicity 1
 O        -2.963326        -1.255453         1.646490
 C        -1.738206        -1.337630         0.878613
 C        -1.433800        -2.499727        -0.064388
 C        -1.667359        -1.152979        -0.698718
 O        -0.622670        -0.314218        -0.987425
 C         0.287365        -0.487858         0.180320
 C         1.500839         0.257894        -0.153503
 C         1.571163        -1.254737        -0.017510
 C        -0.599809        -0.373339         1.385157
 H        -3.103349        -2.173027         1.987260
 H        -0.516330        -3.076269        -0.025535
 H        -2.270111        -3.151189        -0.149718
 H        -2.586597        -0.900675        -1.298359
 H         1.597731         0.585800        -1.168420
 H         1.926223         0.944912         0.514892
 H         1.539032        -1.836560        -0.920456
 H         1.970443        -1.556564         0.868962
 H        -0.037733        -0.728963         2.326484
 H        -1.001361         0.605085         1.507096
