19
Iteration:  3167charge 0 multiplicity 1
 O        -2.999531        -1.016334         1.640880
 C        -1.750279        -1.265942         0.886808
 C        -1.896073        -2.466759        -0.042743
 C        -1.780036        -1.206895        -0.604980
 O        -0.466388        -0.813300        -1.113938
 C         0.359937        -0.508031         0.060158
 C         1.343757         0.604247        -0.015555
 C         1.826265        -0.863234        -0.046544
 C        -0.364427        -0.817344         1.384544
 H        -3.087226        -1.983597         1.885890
 H        -0.993585        -3.212322        -0.126575
 H        -2.795850        -3.126337        -0.005441
 H        -2.506228        -0.536373        -1.108429
 H         1.530607         0.867696        -1.037465
 H         1.267789         1.313538         0.943951
 H         2.269527        -1.258491        -0.933774
 H         2.155223        -1.427710         0.922360
 H         0.225595        -1.710573         1.774230
 H        -0.296517         0.047406         2.093459
