19
Iteration:  2054
 O        -3.105967        -0.981925         1.505714
 C        -1.809777        -1.361196         0.893553
 C        -1.688907        -2.573999         0.046406
 C        -1.739586        -1.177513        -0.513007
 O        -0.455886        -0.606997        -1.030119
 C         0.321989        -0.483621         0.138435
 C         1.521976         0.524780        -0.025240
 C         1.710697        -0.939002        -0.232858
 C        -0.472287        -0.859629         1.390574
 H        -3.163166        -1.574706         2.283719
 H        -0.618807        -2.914906         0.015402
 H        -2.360336        -3.408524        -0.140747
 H        -2.775205        -0.895191        -0.992170
 H         1.490951         1.159349        -0.909023
 H         1.916060         0.967380         1.044587
 H         1.710517        -1.220452        -1.328696
 H         2.495742        -1.394866         0.509004
 H         0.064499        -1.598238         1.934646
 H        -0.718829         0.158104         1.898829
