19
Iteration:  3323charge 0 multiplicity 1
 O        -2.822059        -0.820583         1.584631
 C        -1.736950        -1.338354         0.845213
 C        -2.139954        -2.605620        -0.159180
 C        -1.715093        -1.086266        -0.553761
 O        -0.397172        -1.050179        -1.033040
 C         0.370536        -0.504464         0.123614
 C         1.139321         0.692880        -0.024182
 C         1.876839        -0.683118        -0.002999
 C        -0.336738        -1.038855         1.350824
 H        -2.959112        -1.377541         2.344728
 H        -1.478439        -3.458586        -0.210030
 H        -3.148309        -2.984805        -0.270445
 H        -2.305968        -0.374498        -1.195822
 H         1.157765         1.143559        -1.014032
 H         1.212507         1.320549         0.853470
 H         2.362082        -0.972304        -0.854563
 H         2.378880        -0.748080         1.005783
 H         0.213909        -1.965330         1.532264
 H        -0.229149        -0.482135         2.327962
