19
Iteration:  4302charge 0 multiplicity 1
 O        -2.958698        -1.099193         1.492161
 C        -1.736137        -1.327813         0.906806
 C        -1.527096        -2.593456         0.029776
 C        -1.717283        -1.253997        -0.613268
 O        -0.618759        -0.442207        -1.039791
 C         0.328239        -0.492170         0.077692
 C         1.525041         0.436760         0.064015
 C         1.610611        -1.200842        -0.087663
 C        -0.595236        -0.524293         1.339134
 H        -2.950412        -1.337186         2.419811
 H        -0.610503        -3.146537        -0.167903
 H        -2.450567        -3.116520        -0.093749
 H        -2.501316        -0.995199        -1.236562
 H         1.488524         1.099360        -0.819543
 H         2.022802         0.919594         1.027200
 H         1.808465        -1.466788        -1.084860
 H         1.948235        -1.805161         0.700935
 H        -0.089185        -1.115679         2.109420
 H        -0.901663         0.508130         1.607487
