19
Iteration:  1423charge 0 multiplicity 1
 O        -2.808332        -0.798850         1.606647
 C        -1.817324        -1.311902         0.873556
 C        -2.067952        -2.532270         0.024387
 C        -1.707536        -1.250297        -0.687075
 O        -0.362299        -0.988624        -1.106660
 C         0.338703        -0.562402         0.052649
 C         1.242366         0.708670         0.081959
 C         1.827812        -0.565822        -0.124389
 C        -0.369226        -1.150664         1.391793
 H        -3.181521        -1.541165         2.143966
 H        -1.515958        -3.395904         0.066888
 H        -3.115540        -2.737965        -0.109340
 H        -2.636592        -0.816936        -1.165526
 H         1.099979         1.494084        -0.688596
 H         1.495092         1.220137         1.083222
 H         2.229993        -0.933671        -1.060322
 H         2.360862        -0.924474         0.773321
 H         0.155040        -2.019782         1.731675
 H        -0.326150        -0.363345         2.165758
