19
Iteration:    61
 O        -2.946825        -1.320472         1.506857
 C        -1.652576        -1.330430         0.949575
 C        -1.340757        -2.528797         0.206795
 C        -1.781326        -1.175804        -0.556326
 O        -0.639429        -0.426904        -1.117619
 C         0.213418        -0.381218         0.066344
 C         1.544729         0.317392        -0.079909
 C         1.523612        -1.226631        -0.100825
 C        -0.630045        -0.337277         1.314086
 H        -2.977137        -1.869831         2.288953
 H        -0.317318        -2.783335        -0.131125
 H        -2.043719        -3.412615         0.355532
 H        -2.795418        -0.940997        -0.941473
 H         1.650375         0.818591        -1.030038
 H         1.961912         0.882590         0.759243
 H         1.691250        -1.639855        -1.194774
 H         2.025286        -1.786936         0.663529
 H        -0.008532        -0.577684         2.206109
 H        -1.150597         0.631650         1.496412
