19
Iteration:  4388charge 0 multiplicity 1
 O        -3.008819        -1.247239         1.582468
 C        -1.742220        -1.299715         0.873446
 C        -1.424241        -2.545223        -0.011980
 C        -1.760227        -1.117753        -0.678003
 O        -0.600011        -0.400874        -1.046027
 C         0.258570        -0.379740         0.118583
 C         1.650800         0.273516        -0.151393
 C         1.530574        -1.194247         0.089363
 C        -0.589629        -0.472683         1.369310
 H        -3.129605        -2.067391         2.123781
 H        -0.431597        -2.983405        -0.020642
 H        -2.204305        -3.293788        -0.024641
 H        -2.636776        -0.828436        -1.231989
 H         1.515265         0.511440        -1.167111
 H         2.365672         0.815395         0.598669
 H         1.764730        -1.738178        -0.764506
 H         1.818771        -1.628737         1.009536
 H        -0.124863        -0.661911         2.361017
 H        -1.097784         0.491791         1.520632
