19
Iteration:  3169
 O        -2.997778        -1.014899         1.647303
 C        -1.777804        -1.255408         0.871814
 C        -1.893433        -2.482784        -0.054498
 C        -1.761694        -1.187138        -0.600187
 O        -0.461454        -0.825406        -1.107848
 C         0.360914        -0.517188         0.052527
 C         1.340195         0.598363        -0.009898
 C         1.812778        -0.847369        -0.044437
 C        -0.334116        -0.826204         1.384090
 H        -3.039874        -1.952729         1.896154
 H        -0.954816        -3.184202        -0.052199
 H        -2.830316        -3.120339        -0.019489
 H        -2.541522        -0.541931        -1.103143
 H         1.513180         0.893643        -1.018707
 H         1.236858         1.352650         0.920264
 H         2.233317        -1.311128        -0.959527
 H         2.051382        -1.407941         0.906056
 H         0.198897        -1.700667         1.775753
 H        -0.295630         0.041024         2.129896
