19
Iteration:  3041charge 0 multiplicity 1
 O        -2.966870        -1.214083         1.602066
 C        -1.780346        -1.396218         0.849014
 C        -1.427239        -2.562780         0.041173
 C        -1.743628        -1.145388        -0.685440
 O        -0.535021        -0.348251        -0.977006
 C         0.307579        -0.387013         0.131591
 C         1.590864         0.274456        -0.096844
 C         1.500104        -1.190642        -0.060179
 C        -0.607951        -0.445610         1.353528
 H        -3.168707        -1.910194         2.263900
 H        -0.395618        -3.025407        -0.056268
 H        -2.302932        -3.217874         0.120251
 H        -2.600925        -0.862771        -1.430742
 H         1.574482         0.790278        -1.000784
 H         2.205951         0.810593         0.711326
 H         1.352097        -1.552163        -1.056269
 H         1.953699        -2.104110         0.456655
 H        -0.274881        -0.757996         2.333569
 H        -1.197281         0.483170         1.567797
