19
Iteration:  1270charge 0 multiplicity 1
 O        -2.680685        -0.674164         1.667727
 C        -1.778540        -1.333683         0.849032
 C        -2.146477        -2.498980        -0.026321
 C        -1.629264        -1.093912        -0.618003
 O        -0.287835        -1.180841        -1.023742
 C         0.394610        -0.705836         0.079078
 C         0.880043         0.696455         0.041993
 C         1.885372        -0.381182        -0.121124
 C        -0.336788        -1.324169         1.313924
 H        -3.434490        -1.242901         1.729162
 H        -1.546503        -3.410741         0.129139
 H        -3.117953        -2.644604        -0.382752
 H        -2.214142        -0.357828        -1.099726
 H         0.640964         1.119995        -0.982768
 H         0.928741         1.416369         0.927115
 H         2.250722        -0.556658        -1.161984
 H         2.520368        -0.511195         0.827141
 H        -0.150581        -2.419794         1.590245
 H        -0.400382        -0.618330         2.203449
