19
Iteration:  4350
 O        -2.951575        -1.317403         1.666113
 C        -1.790243        -1.249685         0.807488
 C        -1.461992        -2.431246        -0.042117
 C        -1.759790        -1.144513        -0.682109
 O        -0.570578        -0.397282        -1.113887
 C         0.264986        -0.407645         0.125469
 C         1.554894         0.238270        -0.061430
 C         1.591759        -1.239546         0.110087
 C        -0.590347        -0.405209         1.357479
 H        -2.851558        -2.242646         1.985605
 H        -0.474903        -2.881840        -0.129248
 H        -2.331480        -3.071474         0.193484
 H        -2.698897        -1.043506        -1.354587
 H         1.656216         0.499177        -1.142283
 H         2.051069         0.941037         0.505789
 H         1.849725        -1.943933        -0.756119
 H         1.726119        -1.614651         1.178570
 H        -0.113382        -0.730556         2.273543
 H        -0.986548         0.614696         1.333388
