19
Iteration:  4285
 O        -3.029613        -1.023702         1.463783
 C        -1.791400        -1.280912         0.845395
 C        -1.495457        -2.615879         0.082498
 C        -1.724241        -1.149525        -0.635702
 O        -0.577728        -0.447138        -0.985397
 C         0.321837        -0.513345         0.125419
 C         1.422263         0.336928         0.001106
 C         1.677847        -1.048544        -0.156349
 C        -0.519265        -0.736504         1.378132
 H        -2.944789        -1.336882         2.358832
 H        -0.477989        -2.887546         0.408853
 H        -2.199218        -3.457291        -0.049909
 H        -2.703732        -1.034317        -1.298617
 H         1.651439         0.916777        -0.844496
 H         1.647119         0.870000         0.879682
 H         1.812201        -1.550143        -1.146348
 H         2.251956        -1.538057         0.728778
 H         0.029859        -1.197807         2.213217
 H        -0.869160         0.258528         1.704804
