19
Iteration:  3240
 O        -2.909370        -0.756192         1.448393
 C        -1.739329        -1.373529         0.949903
 C        -1.956765        -2.647806         0.011861
 C        -1.712534        -1.245392        -0.635011
 O        -0.455054        -0.806855        -1.066154
 C         0.368479        -0.531079         0.120068
 C         1.249409         0.636893         0.098391
 C         1.860987        -0.695094        -0.176446
 C        -0.393827        -1.086445         1.368189
 H        -3.170932        -1.234025         2.259842
 H        -1.092254        -3.363385         0.155545
 H        -3.014543        -2.971148         0.023431
 H        -2.486313        -0.503564        -0.927854
 H         1.034551         1.447878        -0.617441
 H         1.489059         1.110450         1.108447
 H         2.032297        -1.019927        -1.174509
 H         2.361719        -1.380050         0.609255
 H         0.097586        -2.016113         1.746165
 H        -0.345484        -0.341693         2.148731
