19
Iteration:   633charge 0 multiplicity 1
 O        -3.048061        -1.183501         1.635675
 C        -1.817593        -1.295403         0.900839
 C        -1.567197        -2.513657         0.009946
 C        -1.734006        -1.215676        -0.668818
 O        -0.530491        -0.528174        -1.033782
 C         0.371837        -0.613916         0.103659
 C         1.436461         0.458906        -0.015172
 C         1.713904        -1.027738        -0.239865
 C        -0.540467        -0.573560         1.389479
 H        -2.868812        -1.295331         2.574558
 H        -0.590249        -2.965810         0.234267
 H        -2.568761        -3.053110         0.181395
 H        -2.553239        -1.051413        -1.358178
 H         1.313671         1.195519        -0.759112
 H         1.902374         0.993350         0.846956
 H         1.936570        -1.498531        -1.228273
 H         2.435587        -1.563525         0.478774
 H        -0.086137        -1.037400         2.224157
 H        -0.838969         0.440553         1.711494
