19
Iteration:  3370charge 0 multiplicity 1
 O        -2.809786        -0.782830         1.574860
 C        -1.826737        -1.284478         0.793213
 C        -2.163001        -2.497269         0.017124
 C        -1.728160        -1.200193        -0.663653
 O        -0.292200        -0.969991        -1.053661
 C         0.466632        -0.687607         0.215199
 C         0.967666         0.653136         0.030582
 C         1.980917        -0.571702        -0.111668
 C        -0.290437        -1.131317         1.374059
 H        -3.240779        -1.465966         2.184367
 H        -1.355445        -3.229717        -0.253804
 H        -3.109963        -2.798463        -0.490276
 H        -2.530282        -0.665533        -1.179018
 H         0.832393         1.369000        -0.811097
 H         1.145431         1.199839         1.025591
 H         1.940552        -1.022312        -1.191627
 H         2.585096        -0.797621         0.788857
 H         0.145546        -2.013448         1.806992
 H        -0.460752        -0.492563         2.224171
