19
Iteration:  1782
 O        -3.068461        -1.262476         1.592894
 C        -1.825825        -1.402591         0.910848
 C        -1.403593        -2.534615        -0.015264
 C        -1.734547        -1.163484        -0.604765
 O        -0.673368        -0.308242        -0.931680
 C         0.326416        -0.324307         0.015263
 C         1.640558         0.305599        -0.178444
 C         1.564882        -1.265903        -0.008688
 C        -0.561241        -0.486997         1.307128
 H        -3.040124        -1.818184         2.365301
 H        -0.504600        -2.897594         0.221944
 H        -2.255576        -3.080541        -0.081584
 H        -2.572914        -1.124654        -1.329994
 H         2.109767         0.560195        -1.052355
 H         2.126845         0.933185         0.594378
 H         1.892192        -1.873896        -0.767298
 H         2.119494        -1.484707         0.937400
 H         0.038163        -0.686072         2.152302
 H        -0.951929         0.486510         1.567678
