19
Iteration:  1685charge 0 multiplicity 1
 O        -2.969126        -1.070976         1.586272
 C        -1.726758        -1.309676         0.829367
 C        -1.761689        -2.657817        -0.016935
 C        -1.754687        -1.240489        -0.590423
 O        -0.595205        -0.516779        -1.014863
 C         0.345438        -0.393683         0.127440
 C         1.461328         0.515794        -0.084894
 C         1.740268        -1.058000        -0.038113
 C        -0.445412        -0.700037         1.358101
 H        -2.991463        -1.735051         2.273412
 H        -0.829267        -3.182088        -0.075569
 H        -2.664370        -3.146803        -0.009564
 H        -2.592922        -0.923742        -1.336440
 H         1.652459         0.771279        -1.137177
 H         1.778130         1.352305         0.551126
 H         2.094666        -1.489851        -1.005200
 H         2.139370        -1.527997         0.842356
 H         0.016437        -1.377071         2.133698
 H        -0.693687         0.205397         1.908352
