19
Iteration:  3213charge 0 multiplicity 1
 O        -2.875019        -0.817960         1.585499
 C        -1.786845        -1.359024         0.815857
 C        -1.984162        -2.686344        -0.096339
 C        -1.740666        -1.182835        -0.639226
 O        -0.473782        -0.766986        -1.028480
 C         0.384668        -0.604754         0.164700
 C         1.263467         0.631357         0.002558
 C         1.906633        -0.741389        -0.096777
 C        -0.392223        -0.972700         1.440238
 H        -2.981344        -1.295988         2.436100
 H        -1.275457        -3.495018         0.055203
 H        -2.975013        -3.131829        -0.366982
 H        -2.489169        -0.701353        -1.278597
 H         0.965450         1.123722        -0.935456
 H         1.467739         1.173787         0.914344
 H         2.204147        -0.967614        -1.179254
 H         2.494424        -1.249865         0.606813
 H         0.058297        -1.716561         2.092230
 H        -0.506939         0.017852         1.951944
