19
Iteration:  4192
 O        -2.981001        -0.971419         1.725586
 C        -1.833388        -1.299324         0.856463
 C        -1.791286        -2.561816        -0.053686
 C        -1.813126        -1.149890        -0.698526
 O        -0.453155        -0.811727        -1.172267
 C         0.347991        -0.530307         0.023138
 C         1.405119         0.561409         0.086196
 C         1.808488        -0.914653         0.055281
 C        -0.449874        -0.804498         1.294200
 H        -2.643424        -1.432109         2.557858
 H        -0.819586        -3.039507        -0.239763
 H        -2.665146        -3.254874        -0.164113
 H        -2.537286        -0.439497        -1.165977
 H         1.339175         1.171508        -0.965645
 H         1.508631         1.372680         0.775295
 H         2.324397        -1.316111        -0.801788
 H         2.423911        -1.303635         0.773844
 H        -0.149491        -1.518861         2.069742
 H        -0.738872         0.082486         1.848604
