19
Iteration:   278
 O        -2.808116        -0.935001         1.791870
 C        -1.876058        -1.282550         0.839836
 C        -1.903618        -2.606407         0.072493
 C        -1.749197        -1.252499        -0.738451
 O        -0.435911        -0.912437        -1.110066
 C         0.344241        -0.509479         0.054165
 C         1.321599         0.654091         0.044213
 C         1.862679        -0.721865        -0.129249
 C        -0.491071        -0.834212         1.295655
 H        -3.221425        -1.785387         2.097718
 H        -1.132724        -3.395800         0.010782
 H        -2.865394        -3.060434        -0.120434
 H        -2.538924        -1.076541        -1.474065
 H         1.395840         1.308682        -0.805487
 H         1.524970         1.164915         0.931592
 H         2.133496        -0.916750        -1.091482
 H         2.434768        -1.243552         0.693400
 H        -0.124902        -1.521951         2.156104
 H        -0.611065         0.127809         1.732858
