19
Iteration:  1336charge 0 multiplicity 1
 O        -2.746576        -0.643210         1.694818
 C        -1.822272        -1.396131         0.854602
 C        -2.228876        -2.561610        -0.043448
 C        -1.713221        -1.260274        -0.671462
 O        -0.315635        -1.116354        -1.101815
 C         0.408412        -0.596443         0.093919
 C         1.020002         0.787505         0.050016
 C         1.959075        -0.455415        -0.083259
 C        -0.333542        -1.272778         1.341018
 H        -3.373090        -1.341283         2.036823
 H        -1.612893        -3.429474        -0.039142
 H        -3.272068        -2.647539        -0.191623
 H        -2.410506        -0.590804        -1.252127
 H         0.814924         1.503102        -0.840920
 H         1.091347         1.355170         1.038972
 H         2.688870        -0.674658        -0.965789
 H         2.532508        -0.725400         0.804082
 H         0.315217        -2.119317         1.482726
 H        -0.056114        -0.713945         2.243473
