19
Iteration:   812charge 0 multiplicity 1
 O        -2.854513        -0.851891         1.591063
 C        -1.780606        -1.359478         0.781349
 C        -1.813827        -2.578937         0.036263
 C        -1.756893        -1.158567        -0.609913
 O        -0.513521        -0.764397        -1.088896
 C         0.310638        -0.580585         0.088335
 C         1.214510         0.619546        -0.042162
 C         1.909383        -0.712544        -0.037116
 C        -0.437739        -1.092855         1.354322
 H        -2.677684        -1.192508         2.491061
 H        -1.021170        -3.244345         0.119029
 H        -2.777256        -3.067083        -0.197682
 H        -2.787199        -0.804371        -0.953890
 H         1.009794         1.205703        -0.889562
 H         1.358030         1.254153         0.890939
 H         2.292770        -1.216768        -0.878920
 H         2.307206        -1.002071         0.981953
 H         0.049216        -1.985729         1.730707
 H        -0.421863        -0.315207         2.110929
