19
Iteration:  3372
 O        -2.803971        -0.765407         1.579958
 C        -1.809865        -1.291522         0.817407
 C        -2.158711        -2.492402         0.001798
 C        -1.741400        -1.225788        -0.684685
 O        -0.287351        -0.967502        -1.056065
 C         0.466095        -0.686759         0.220633
 C         0.974353         0.660317         0.056070
 C         1.957864        -0.563550        -0.114598
 C        -0.290001        -1.136732         1.366221
 H        -3.278193        -1.437506         2.147470
 H        -1.382733        -3.238412        -0.210647
 H        -3.102809        -2.800114        -0.486251
 H        -2.485469        -0.699979        -1.178024
 H         0.822928         1.353741        -0.802754
 H         1.087797         1.138574         1.019479
 H         1.943328        -1.062791        -1.196886
 H         2.594014        -0.829871         0.688393
 H         0.177863        -2.000926         1.826603
 H        -0.492388        -0.452915         2.158783
