19
Iteration:  3645charge 0 multiplicity 1
 O        -2.899993        -0.770691         1.542241
 C        -1.784965        -1.371380         0.890877
 C        -2.012324        -2.511353        -0.147191
 C        -1.689894        -1.154377        -0.527063
 O        -0.348092        -1.011841        -0.986239
 C         0.377503        -0.641056         0.131083
 C         1.152914         0.725723         0.000219
 C         1.794424        -0.595563        -0.100779
 C        -0.332912        -1.141925         1.386596
 H        -3.163065        -1.385212         2.285371
 H        -1.193404        -3.212749        -0.249935
 H        -3.003755        -2.823619        -0.449631
 H        -2.386899        -0.447178        -1.144766
 H         1.065795         1.165077        -1.003821
 H         1.457659         1.234999         0.882655
 H         2.067963        -1.063390        -1.094848
 H         2.514505        -0.884237         0.580555
 H         0.196986        -2.013712         1.863865
 H        -0.451109        -0.366656         2.133846
