19
Iteration:  4159charge 0 multiplicity 1
 O        -2.918109        -0.954300         1.573596
 C        -1.785577        -1.316433         0.784146
 C        -1.913068        -2.601588         0.054466
 C        -1.723367        -1.198475        -0.667793
 O        -0.468090        -0.679465        -1.024092
 C         0.365418        -0.498347         0.003901
 C         1.339493         0.604151         0.012362
 C         1.805069        -0.984349         0.034498
 C        -0.402959        -0.859293         1.346916
 H        -2.813418        -1.534163         2.358136
 H        -1.082835        -3.328363        -0.004095
 H        -2.902995        -3.061780        -0.150818
 H        -2.539882        -0.648203        -1.238678
 H         1.139940         1.056879        -1.051477
 H         1.419551         1.259372         0.894279
 H         2.109930        -1.247849        -0.940525
 H         2.266821        -1.107269         0.953942
 H         0.097954        -1.639728         1.938913
 H        -0.546066         0.052031         1.924252
