19
Iteration:  1819charge 0 multiplicity 1
 O        -2.914219        -1.257516         1.566185
 C        -1.691432        -1.243130         0.845920
 C        -1.510004        -2.424056        -0.033971
 C        -1.766732        -1.109423        -0.648418
 O        -0.546974        -0.517002        -0.987169
 C         0.267165        -0.388477         0.153575
 C         1.416730         0.364573        -0.142013
 C         1.532813        -1.240272         0.006202
 C        -0.522671        -0.494855         1.401626
 H        -2.918867        -2.058691         2.105941
 H        -0.557345        -3.129786        -0.035759
 H        -2.382298        -3.165063         0.115430
 H        -2.595566        -0.966398        -1.365280
 H         1.584523         0.766077        -1.220202
 H         1.844619         0.829167         0.751551
 H         1.751622        -1.773183        -1.013031
 H         2.123537        -1.699125         0.806696
 H        -0.010516        -1.046399         2.274246
 H        -0.987198         0.480974         1.623963
