19
Iteration:  1161
 O        -2.759075        -0.726564         1.613082
 C        -1.753534        -1.359913         0.825915
 C        -2.122424        -2.594003         0.075335
 C        -1.742729        -1.208828        -0.675204
 O        -0.395673        -1.045848        -1.086902
 C         0.390954        -0.525860         0.175591
 C         1.145492         0.787379         0.050281
 C         1.843126        -0.563283        -0.084848
 C        -0.304623        -1.207823         1.288865
 H        -3.411759        -1.357596         1.992924
 H        -1.385851        -3.354497         0.066184
 H        -3.137719        -2.918563        -0.152117
 H        -2.342949        -0.577996        -1.261529
 H         0.894961         1.280912        -0.910277
 H         1.259902         1.437214         0.969052
 H         2.160114        -0.824264        -1.103655
 H         2.583242        -1.012792         0.689886
 H         0.136306        -2.244613         1.532684
 H        -0.555404        -0.594847         2.189085
