19
Iteration:   253charge 0 multiplicity 1
 O        -2.872267        -0.910573         1.628162
 C        -1.764973        -1.398080         0.951272
 C        -1.881476        -2.623568         0.004877
 C        -1.745703        -1.219970        -0.597644
 O        -0.533633        -0.768908        -1.113707
 C         0.348785        -0.530135        -0.012309
 C         1.255775         0.621751        -0.086909
 C         1.864047        -0.778657         0.045395
 C        -0.374404        -0.874240         1.273238
 H        -3.158955        -1.564174         2.299942
 H        -1.089070        -3.506624        -0.084697
 H        -2.912987        -3.119127         0.091303
 H        -2.584548        -0.613849        -0.907614
 H         1.313527         1.154369        -1.034008
 H         1.253461         1.296079         0.802800
 H         2.427872        -1.177456        -0.861045
 H         2.225139        -1.084787         1.033408
 H         0.259303        -1.549158         1.941005
 H        -0.475107         0.078424         1.846868
