19
Iteration:  2328
 O        -2.948019        -0.867457         1.695603
 C        -1.845733        -1.377129         0.886306
 C        -1.823442        -2.581373        -0.154257
 C        -1.804383        -1.195029        -0.688024
 O        -0.480032        -0.736000        -0.990124
 C         0.390100        -0.578094         0.116343
 C         1.317435         0.590115        -0.016592
 C         1.871738        -0.913541        -0.104250
 C        -0.423302        -0.860870         1.377975
 H        -3.083346        -1.570902         2.366157
 H        -0.829129        -3.014790        -0.275555
 H        -2.726693        -3.094281        -0.510204
 H        -2.534154        -0.886590        -1.436183
 H         1.213356         1.264798        -0.808405
 H         1.704089         1.041549         1.004684
 H         2.189331        -1.234049        -1.073004
 H         2.423587        -1.276147         0.777078
 H         0.078248        -1.351605         2.137623
 H        -0.591023         0.175731         1.825128
