19
Iteration:  2779charge 0 multiplicity 1
 O        -3.023271        -0.941819         1.634448
 C        -1.857448        -1.314140         0.926253
 C        -1.785741        -2.661399        -0.122616
 C        -1.673509        -1.199073        -0.667642
 O        -0.489993        -0.618297        -1.032129
 C         0.310944        -0.535726         0.130308
 C         1.437714         0.522519        -0.032658
 C         1.862163        -0.889233        -0.188986
 C        -0.494143        -0.831386         1.452470
 H        -3.173253        -1.573719         2.376888
 H        -0.956373        -3.324148         0.192847
 H        -2.889526        -2.987236        -0.117776
 H        -2.448463        -1.014603        -1.288240
 H         1.365795         1.050262        -0.925531
 H         1.840700         1.122550         0.877819
 H         2.018995        -1.288447        -1.207798
 H         2.624186        -1.377823         0.583364
 H         0.193251        -1.432385         2.138210
 H        -0.779389         0.102145         2.066210
