19
Iteration:  4998charge 0 multiplicity 1
 O        -2.807245        -0.667853         1.574856
 C        -1.769881        -1.239585         0.776204
 C        -2.073570        -2.586600         0.148319
 C        -1.645967        -1.273100        -0.671326
 O        -0.401824        -0.858296        -1.104170
 C         0.425420        -0.695757         0.121352
 C         1.089516         0.664072         0.170011
 C         1.856054        -0.686396        -0.147224
 C        -0.318049        -1.185132         1.346005
 H        -3.589173        -0.912008         1.040570
 H        -1.413557        -3.418321         0.458543
 H        -3.065382        -2.969853        -0.204862
 H        -2.528315        -1.044125        -1.349565
 H         0.763840         1.353817        -0.595051
 H         1.243511         1.153990         1.218181
 H         1.931430        -0.656203        -1.199194
 H         2.561241        -0.974966         0.651257
 H         0.079445        -2.154662         1.626292
 H        -0.198060        -0.519417         2.205389
