19
Iteration:  4585charge 0 multiplicity 1
 O        -2.882619        -0.754852         1.522580
 C        -1.764269        -1.427676         0.908317
 C        -1.973105        -2.630390         0.009542
 C        -1.726367        -1.283563        -0.572374
 O        -0.489765        -0.778238        -1.074780
 C         0.374664        -0.512108         0.100665
 C         1.344992         0.648231         0.050096
 C         1.854014        -0.784920        -0.122912
 C        -0.407288        -0.992266         1.362445
 H        -3.434632        -1.399923         1.965342
 H        -1.090606        -3.270036        -0.010857
 H        -2.951300        -2.977468        -0.238751
 H        -2.625339        -0.867285        -1.092717
 H         1.322277         1.418933        -0.803782
 H         1.611991         1.147866         0.976829
 H         2.203905        -1.214013        -1.044972
 H         2.256248        -1.137167         0.824488
 H         0.171383        -1.851414         1.839791
 H        -0.744330        -0.117084         1.889572
