19
Iteration:  2710
 O        -2.960443        -0.974423         1.607016
 C        -1.782614        -1.369084         0.877310
 C        -1.553978        -2.644325        -0.079195
 C        -1.730566        -1.151340        -0.602254
 O        -0.620703        -0.536386        -1.027338
 C         0.317434        -0.445086         0.064017
 C         1.475124         0.425837         0.034201
 C         1.624211        -1.082499        -0.068018
 C        -0.475327        -0.682530         1.320567
 H        -3.098744        -1.719760         2.193144
 H        -0.524252        -2.938604         0.026102
 H        -2.343067        -3.339460        -0.129602
 H        -2.748887        -0.888943        -1.250564
 H         1.614833         0.995227        -0.952264
 H         1.819375         0.784509         0.955344
 H         1.931961        -1.378228        -1.056686
 H         1.985000        -1.593731         0.761123
 H         0.032573        -1.259007         2.076429
 H        -0.680744         0.315588         1.842495
