19
Iteration:   800
 O        -2.860597        -0.866423         1.640121
 C        -1.823710        -1.365609         0.913716
 C        -1.897440        -2.652910        -0.059076
 C        -1.800501        -1.191344        -0.626144
 O        -0.543947        -0.736594        -1.069203
 C         0.406470        -0.586939         0.039233
 C         1.234858         0.648492        -0.073317
 C         1.919527        -0.722210         0.035463
 C        -0.378226        -1.019428         1.326507
 H        -2.973447        -1.327832         2.473316
 H        -1.041633        -3.266336        -0.111359
 H        -2.907279        -3.131620        -0.148250
 H        -2.488058        -0.764534        -1.429265
 H         1.362735         1.043348        -1.037811
 H         1.267128         1.332716         0.723639
 H         2.532253        -1.020601        -0.815342
 H         2.423440        -0.999393         0.950807
 H         0.059401        -1.859468         1.773879
 H        -0.507999        -0.269055         2.108761
