19
Iteration:   972charge 0 multiplicity 1
 O        -2.850652        -0.922989         1.566672
 C        -1.750775        -1.385385         0.909405
 C        -2.054073        -2.543945        -0.009508
 C        -1.710350        -1.175677        -0.630910
 O        -0.439412        -0.991472        -1.086762
 C         0.353832        -0.593585         0.114376
 C         1.245842         0.754834         0.090494
 C         1.887139        -0.638244        -0.174995
 C        -0.383922        -0.960195         1.351480
 H        -3.273259        -1.435810         2.286832
 H        -1.201827        -3.285058        -0.100259
 H        -3.162380        -2.719147        -0.023713
 H        -2.610882        -0.618168        -1.135299
 H         1.202964         1.407141        -0.673675
 H         1.504010         1.103213         1.035479
 H         2.129210        -0.903078        -1.176404
 H         2.558647        -1.069887         0.636020
 H         0.139144        -1.831359         1.843861
 H        -0.502993        -0.110781         2.120473
