19
Iteration:  4795
 O        -2.841780        -0.688957         1.463019
 C        -1.788862        -1.372893         0.843766
 C        -2.003892        -2.720320         0.033603
 C        -1.704432        -1.245720        -0.583964
 O        -0.477366        -0.784067        -1.030598
 C         0.414810        -0.601810         0.051372
 C         1.217738         0.654730         0.049799
 C         1.834391        -0.687781        -0.056139
 C        -0.365079        -1.101077         1.380333
 H        -2.689672        -0.727849         2.441417
 H        -1.161230        -3.460990        -0.102354
 H        -3.048182        -2.978442        -0.274099
 H        -2.584703        -0.696905        -1.114900
 H         1.068955         1.222688        -0.935151
 H         1.275855         1.150419         0.996143
 H         2.342319        -0.989538        -1.052810
 H         2.415015        -1.219020         0.779684
 H         0.081041        -2.080155         1.840551
 H        -0.657472        -0.342832         2.173270
