19
Iteration:  3963
 O        -2.965701        -1.137580         1.461863
 C        -1.697435        -1.362010         0.885511
 C        -1.331417        -2.627935         0.130259
 C        -1.667314        -1.166301        -0.597520
 O        -0.625877        -0.288679        -1.010929
 C         0.201289        -0.388955         0.118520
 C         1.563207         0.221034        -0.042504
 C         1.460774        -1.232615        -0.126811
 C        -0.621675        -0.436574         1.360417
 H        -3.078830        -2.007155         1.951111
 H        -0.331244        -3.038477         0.146160
 H        -2.218839        -3.261545        -0.022503
 H        -2.593159        -1.243943        -1.066980
 H         1.576569         0.831117        -0.958969
 H         2.021195         0.854891         0.810476
 H         1.586937        -1.780265        -1.086557
 H         1.893976        -1.776570         0.666790
 H        -0.178911        -0.971473         2.202631
 H        -0.919033         0.557121         1.707239
