19
Iteration:  2739charge 0 multiplicity 1
 O        -2.978969        -0.968919         1.479480
 C        -1.758144        -1.373648         0.902960
 C        -1.673074        -2.574515         0.064541
 C        -1.741401        -1.190484        -0.644537
 O        -0.599989        -0.571569        -1.081943
 C         0.322727        -0.490698         0.079165
 C         1.420535         0.469860         0.050280
 C         1.709338        -0.998783        -0.145663
 C        -0.416742        -0.780596         1.427808
 H        -3.006883        -1.465082         2.313116
 H        -0.747329        -3.120239         0.042285
 H        -2.596809        -3.193653         0.164030
 H        -2.609741        -0.795098        -1.232289
 H         1.588082         1.084668        -0.796868
 H         1.702274         0.833168         1.083001
 H         1.946443        -1.072812        -1.182545
 H         2.207757        -1.541639         0.705288
 H         0.157261        -1.516279         2.047560
 H        -0.556126         0.114516         1.973818
