19
Iteration:  3435
 O        -2.729041        -0.613812         1.569542
 C        -1.738880        -1.322966         0.845034
 C        -2.140440        -2.595476         0.090653
 C        -1.707467        -1.219764        -0.643598
 O        -0.342499        -0.954254        -1.128957
 C         0.417224        -0.684898         0.035038
 C         0.941887         0.713781         0.152170
 C         1.886341        -0.505987        -0.039823
 C        -0.309601        -1.314860         1.312905
 H        -3.265998        -1.364296         1.859736
 H        -1.531877        -3.518685         0.035609
 H        -3.181476        -2.634116        -0.380131
 H        -2.477187        -0.822611        -1.251965
 H         0.968461         1.298843        -0.813843
 H         0.984863         1.341793         1.058774
 H         2.497935        -0.662946        -1.037673
 H         2.274944        -0.823859         0.901621
 H         0.026860        -2.337343         1.589104
 H        -0.139095        -0.815038         2.260446
