19
Iteration:  1766
 O        -3.006059        -1.262290         1.539315
 C        -1.728020        -1.319894         0.864776
 C        -1.471200        -2.594673         0.084984
 C        -1.661493        -1.236943        -0.620949
 O        -0.657257        -0.256485        -0.994456
 C         0.260127        -0.398985         0.085017
 C         1.582033         0.280018        -0.082506
 C         1.527525        -1.245009        -0.054120
 C        -0.517484        -0.398064         1.339696
 H        -2.899976        -1.650985         2.418996
 H        -0.450447        -3.176443         0.071572
 H        -2.316416        -3.334376        -0.178347
 H        -2.544996        -1.102134        -1.267993
 H         1.720963         0.785435        -1.106548
 H         1.922059         0.871954         0.756738
 H         1.649745        -1.604929        -1.126277
 H         1.685835        -1.861630         0.820672
 H         0.043838        -0.875243         2.196840
 H        -0.914872         0.629616         1.595248
