19
Iteration:  4184
 O        -2.968163        -0.988473         1.730707
 C        -1.814901        -1.254902         0.815413
 C        -1.773353        -2.505186        -0.064613
 C        -1.771192        -1.174718        -0.715584
 O        -0.482828        -0.813629        -1.171366
 C         0.319998        -0.535219         0.012481
 C         1.411028         0.551380         0.056023
 C         1.824050        -0.856884         0.089234
 C        -0.496598        -0.871808         1.325081
 H        -2.639262        -1.384293         2.593243
 H        -0.945701        -3.148121        -0.209680
 H        -2.710699        -2.979969         0.114314
 H        -2.575255        -0.734403        -1.152661
 H         1.469299         0.956678        -0.960882
 H         1.640597         1.204073         0.878868
 H         2.077360        -1.167866        -0.920315
 H         2.222407        -1.248108         1.007862
 H         0.012316        -1.602990         1.926491
 H        -0.540717         0.111405         1.851846
