19
Iteration:  2390charge 0 multiplicity 1
 O        -2.957413        -0.799484         1.577479
 C        -1.794082        -1.370320         0.938697
 C        -1.759555        -2.593734        -0.106479
 C        -1.802620        -1.129957        -0.556519
 O        -0.532768        -0.740586        -1.064880
 C         0.347400        -0.585465         0.051424
 C         1.325489         0.591971         0.000063
 C         1.894948        -0.838269        -0.058305
 C        -0.463857        -1.031270         1.361496
 H        -3.442998        -1.316466         2.247303
 H        -0.860328        -3.248747        -0.050990
 H        -2.601978        -3.296398        -0.231724
 H        -2.616792        -0.746246        -0.975700
 H         1.410938         1.156655        -0.918893
 H         1.546066         1.180298         0.964319
 H         2.379860        -0.968013        -1.049158
 H         2.680887        -1.336458         0.652807
 H         0.107542        -1.817855         1.942093
 H        -0.551001        -0.069187         1.952283
