19
Iteration:  3259charge 0 multiplicity 1
 O        -2.911445        -0.760131         1.490595
 C        -1.820731        -1.261644         0.840195
 C        -1.907856        -2.572786         0.097928
 C        -1.765982        -1.198676        -0.669098
 O        -0.492600        -0.895370        -1.089964
 C         0.382331        -0.610310         0.122420
 C         1.244841         0.697506         0.187444
 C         1.787494        -0.699049        -0.165358
 C        -0.252408        -1.142254         1.391619
 H        -3.292554        -1.330032         2.139978
 H        -0.982529        -3.164886        -0.053926
 H        -2.871227        -3.091440        -0.080819
 H        -2.613030        -1.008093        -1.394864
 H         1.371393         1.328082        -0.755361
 H         1.422287         1.150586         1.149414
 H         2.145295        -0.866084        -1.168944
 H         2.615753        -1.146831         0.518252
 H         0.127873        -2.099826         1.643372
 H        -0.284595        -0.425340         2.229944
