19
Iteration:   296
 O        -2.869319        -0.957961         1.793429
 C        -1.767423        -1.271097         0.789028
 C        -1.872783        -2.512964         0.069952
 C        -1.707811        -1.290819        -0.765437
 O        -0.378893        -0.927626        -1.054518
 C         0.364791        -0.566902         0.084372
 C         1.238276         0.665928         0.060797
 C         1.778982        -0.793993        -0.232025
 C        -0.470110        -0.736353         1.354549
 H        -3.516835        -1.704971         1.664385
 H        -0.863683        -3.207299         0.202430
 H        -2.945185        -2.953186         0.106821
 H        -2.549329        -0.962037        -1.379675
 H         1.139958         1.417745        -0.716974
 H         1.383304         0.989743         1.138277
 H         1.847362        -1.150826        -1.303540
 H         2.626359        -1.173194         0.431660
 H        -0.049316        -1.618981         1.839755
 H        -0.671090         0.012796         2.163983
