19
Iteration:  4895
 O        -2.838702        -0.891396         1.764585
 C        -1.864277        -1.349749         0.884665
 C        -2.034193        -2.478140        -0.076397
 C        -1.747202        -1.112759        -0.732479
 O        -0.336491        -1.073768        -0.977104
 C         0.417434        -0.547863         0.116921
 C         1.249420         0.688933        -0.099455
 C         1.862997        -0.684416        -0.038509
 C        -0.409900        -1.013767         1.343095
 H        -3.693847        -0.896813         1.347030
 H        -1.306071        -3.217075        -0.358677
 H        -3.069339        -2.753477        -0.226914
 H        -2.467688        -0.620409        -1.380734
 H         1.093839         1.103019        -1.017908
 H         1.345152         1.496128         0.642808
 H         2.247777        -1.132424        -0.911313
 H         2.530829        -0.981827         0.772329
 H         0.107629        -1.876999         1.857784
 H        -0.477584        -0.307734         2.215559
