19
Iteration:  3678charge 0 multiplicity 1
 O        -2.803952        -0.886796         1.610086
 C        -1.764765        -1.274621         0.847912
 C        -2.170828        -2.596207        -0.092411
 C        -1.741582        -1.208863        -0.620677
 O        -0.404243        -0.911887        -1.029966
 C         0.391939        -0.629909         0.135740
 C         1.163255         0.621504        -0.009909
 C         1.966768        -0.613557        -0.004445
 C        -0.337808        -0.979911         1.346808
 H        -3.220427        -1.755538         1.833861
 H        -1.517033        -3.450968        -0.076998
 H        -3.247021        -2.642316        -0.277415
 H        -2.435778        -0.536807        -1.347882
 H         1.297373         1.279877        -0.866687
 H         1.234044         1.307207         0.843782
 H         2.201943        -0.904847        -1.090076
 H         2.570809        -0.884036         0.785476
 H         0.123501        -1.836338         1.899073
 H        -0.562525        -0.216236         2.083458
