19
Iteration:  2905charge 0 multiplicity 1
 O        -3.054438        -0.960963         1.428671
 C        -1.777309        -1.366034         0.926886
 C        -1.614054        -2.594089         0.058886
 C        -1.759144        -1.194890        -0.505739
 O        -0.606976        -0.511487        -1.026418
 C         0.348566        -0.545821         0.078854
 C         1.446518         0.476987         0.023300
 C         1.790446        -1.023239        -0.216121
 C        -0.424228        -0.771740         1.413049
 H        -3.375570        -1.637174         2.029136
 H        -0.655491        -3.017061        -0.048949
 H        -2.418628        -3.255946        -0.174411
 H        -2.752391        -0.798201        -0.939560
 H         1.447132         0.997852        -0.860599
 H         1.750854         1.058017         0.963543
 H         2.095002        -1.301855        -1.169745
 H         2.288277        -1.469497         0.620583
 H        -0.017501        -1.503288         2.144488
 H        -0.726189         0.127596         1.947048
