19
Iteration:  1175charge 0 multiplicity 1
 O        -2.739291        -0.661547         1.644956
 C        -1.819374        -1.371413         0.844973
 C        -2.055597        -2.570935         0.028673
 C        -1.665533        -1.228377        -0.676137
 O        -0.341369        -0.937243        -1.087674
 C         0.374737        -0.708513         0.040170
 C         0.992425         0.684494         0.055850
 C         1.898818        -0.525052        -0.068516
 C        -0.386996        -1.205241         1.326721
 H        -3.101394        -1.336695         2.250879
 H        -1.463457        -3.492699         0.060078
 H        -3.079519        -2.751939         0.029337
 H        -2.572613        -0.861484        -1.230410
 H         1.032332         1.337665        -0.839310
 H         0.986559         1.248617         1.039905
 H         2.286281        -0.676951        -1.038386
 H         2.521646        -0.777584         0.741143
 H         0.084301        -2.127179         1.685117
 H        -0.265829        -0.473483         2.061818
