19
Iteration:  1003
 O        -2.887264        -0.728454         1.649119
 C        -1.825112        -1.278631         0.904849
 C        -1.827180        -2.580898        -0.063797
 C        -1.681617        -1.220463        -0.651543
 O        -0.412867        -0.911572        -1.068560
 C         0.351755        -0.656210         0.157255
 C         1.111141         0.661179         0.100614
 C         1.833100        -0.681477        -0.249020
 C        -0.401132        -1.057901         1.381937
 H        -3.403021        -1.487132         1.980289
 H        -0.905339        -3.175286        -0.006614
 H        -2.680725        -3.266469        -0.213187
 H        -2.523359        -0.807840        -1.289517
 H         0.933937         1.459358        -0.580292
 H         1.448045         1.148669         1.008344
 H         1.992864        -0.966326        -1.217969
 H         2.595409        -1.035988         0.411890
 H         0.056176        -2.032994         1.683329
 H        -0.252945        -0.411524         2.274109
