19
Iteration:  2019charge 0 multiplicity 1
 O        -2.934977        -0.997110         1.572835
 C        -1.778567        -1.309555         0.883791
 C        -1.893893        -2.597976        -0.006088
 C        -1.728881        -1.266308        -0.657441
 O        -0.558445        -0.567066        -1.006105
 C         0.375986        -0.562632         0.077215
 C         1.363916         0.490203         0.007497
 C         1.842921        -0.895510        -0.074268
 C        -0.387950        -0.802799         1.338257
 H        -3.043254        -1.762640         2.170289
 H        -1.094732        -3.271473        -0.103387
 H        -2.865818        -2.955129        -0.105157
 H        -2.645655        -0.879830        -1.187356
 H         1.390802         1.184985        -0.864487
 H         1.538918         1.043583         0.867756
 H         2.153617        -1.333068        -1.070041
 H         2.547398        -0.975678         0.676254
 H         0.084173        -1.428090         2.058459
 H        -0.507647         0.148992         1.962603
