19
Iteration:  1455
 O        -2.822779        -0.837573         1.670225
 C        -1.853339        -1.325413         0.831193
 C        -2.006348        -2.553012        -0.022445
 C        -1.773621        -1.166054        -0.628721
 O        -0.380374        -0.910797        -1.056547
 C         0.354919        -0.558679         0.069152
 C         1.187086         0.621499        -0.030731
 C         1.917212        -0.651317        -0.031535
 C        -0.348030        -1.052004         1.315073
 H        -3.477455        -1.506939         1.829655
 H        -1.196249        -3.180452        -0.079290
 H        -2.967050        -3.044324        -0.054443
 H        -2.653683        -0.595760        -1.085589
 H         1.096860         1.047096        -1.054083
 H         1.250049         1.347509         0.893725
 H         2.456371        -0.943503        -0.910151
 H         2.417519        -1.051362         0.886401
 H         0.083268        -2.090047         1.803524
 H        -0.298015        -0.380153         2.228059
