19
Iteration:  4751charge 0 multiplicity 1
 O        -2.923104        -0.766965         1.625373
 C        -1.880333        -1.318483         0.898032
 C        -1.939805        -2.570573        -0.016202
 C        -1.713344        -1.150889        -0.603641
 O        -0.382353        -0.986744        -1.040215
 C         0.421788        -0.595967         0.049617
 C         1.255228         0.668135         0.072715
 C         1.881128        -0.689181        -0.163019
 C        -0.458461        -1.021964         1.363294
 H        -3.467190        -1.560953         1.843675
 H        -1.006260        -3.199310        -0.079587
 H        -2.931681        -3.017596        -0.235468
 H        -2.495952        -0.836939        -1.333520
 H         1.415162         1.464018        -0.730815
 H         1.281331         1.173418         0.993272
 H         2.339144        -0.944969        -1.221563
 H         2.506289        -1.224804         0.601057
 H        -0.093257        -2.057486         1.804454
 H        -0.264501        -0.180759         2.091572
