19
Iteration:  2639
 O        -2.949291        -1.265367         1.515269
 C        -1.726316        -1.282986         0.849048
 C        -1.380146        -2.532571        -0.052932
 C        -1.816034        -1.087886        -0.562793
 O        -0.670763        -0.434799        -1.042858
 C         0.269303        -0.392625         0.159479
 C         1.587124         0.259860        -0.076716
 C         1.501915        -1.239393        -0.034876
 C        -0.548945        -0.387237         1.398479
 H        -2.941553        -2.053924         2.057172
 H        -0.307138        -2.936796        -0.018332
 H        -2.244731        -3.207918        -0.085303
 H        -2.714525        -0.849615        -0.923269
 H         1.821892         0.609039        -1.148176
 H         2.107414         0.770330         0.700569
 H         1.789017        -1.853595        -1.002554
 H         1.972595        -1.554254         0.949577
 H        -0.014481        -0.830325         2.299038
 H        -1.013191         0.480108         1.753960
