19
Iteration:  2026charge 0 multiplicity 1
 O        -3.011593        -1.031423         1.527908
 C        -1.754806        -1.283873         0.840331
 C        -1.875528        -2.586765         0.023803
 C        -1.745545        -1.256002        -0.630947
 O        -0.555641        -0.552939        -0.981032
 C         0.368448        -0.557783         0.085467
 C         1.393827         0.499133        -0.026997
 C         1.888044        -0.892654        -0.147123
 C        -0.365055        -0.780225         1.403222
 H        -2.965842        -1.816474         2.138709
 H        -1.249871        -3.493982         0.107712
 H        -2.963409        -2.902938        -0.042793
 H        -2.628237        -1.063782        -1.117643
 H         1.417154         1.240910        -0.796001
 H         1.604164         1.021673         0.908508
 H         2.079574        -1.247896        -1.096456
 H         2.408503        -1.206561         0.794378
 H         0.112983        -1.563400         2.100956
 H        -0.466094         0.094877         1.975401
