19
Iteration:  4850
 O        -2.822473        -0.835879         1.556997
 C        -1.730478        -1.321976         0.879868
 C        -2.062553        -2.482183         0.000225
 C        -1.708494        -1.172740        -0.670277
 O        -0.374871        -0.960089        -1.057474
 C         0.411958        -0.627595         0.100624
 C         1.102581         0.613265         0.071443
 C         1.822985        -0.726132        -0.067865
 C        -0.327023        -0.946355         1.332166
 H        -3.384212        -1.517063         1.934805
 H        -1.414125        -3.391280         0.077942
 H        -3.149074        -2.718187         0.120942
 H        -2.428607        -0.707051        -1.456495
 H         0.991707         1.220719        -0.789962
 H         1.369794         1.314341         0.857600
 H         2.059613        -0.978644        -1.105413
 H         2.475828        -1.176714         0.792530
 H         0.208167        -1.750501         1.985035
 H        -0.480236        -0.191385         2.134559
