19
Iteration:  3635
 O        -2.916980        -0.755250         1.548544
 C        -1.802265        -1.348853         0.862964
 C        -1.988991        -2.527210        -0.173788
 C        -1.649177        -1.105936        -0.606225
 O        -0.368532        -1.046694        -0.955307
 C         0.372037        -0.556996         0.153239
 C         1.053344         0.684201         0.017954
 C         1.878265        -0.668439        -0.141838
 C        -0.308936        -1.108513         1.435326
 H        -3.067331        -1.295840         2.391053
 H        -1.173536        -3.232287        -0.072743
 H        -2.933017        -3.055662        -0.275642
 H        -2.657340        -0.606302        -1.093143
 H         1.248001         1.359262        -0.851106
 H         1.203858         1.311920         0.906771
 H         2.036043        -0.944592        -1.247454
 H         2.420132        -1.000447         0.648126
 H         0.107289        -2.149734         1.464741
 H        -0.075541        -0.568189         2.367735
