19
Iteration:  3799charge 0 multiplicity 1
 O        -2.987844        -0.905732         1.568663
 C        -1.797625        -1.285288         0.878991
 C        -1.734418        -2.536581         0.019396
 C        -1.693528        -1.159725        -0.622110
 O        -0.455318        -0.767942        -1.119036
 C         0.366850        -0.583250         0.098847
 C         1.264521         0.620299         0.061092
 C         1.785734        -0.916803        -0.120974
 C        -0.433663        -0.926225         1.373382
 H        -3.235918        -1.578785         2.190362
 H        -0.818256        -3.120434         0.249871
 H        -2.669433        -2.956787        -0.239025
 H        -2.581116        -0.848869        -1.246455
 H         1.133646         1.494263        -0.640244
 H         1.483348         1.020431         1.074917
 H         1.783652        -1.152435        -1.130727
 H         2.477972        -1.447353         0.597632
 H         0.039274        -1.745259         1.961409
 H        -0.428205        -0.025892         2.020100
