19
Iteration:    52charge 0 multiplicity 1
 O        -2.939277        -1.251153         1.571027
 C        -1.677541        -1.313851         0.907091
 C        -1.312233        -2.541172         0.138629
 C        -1.726863        -1.257199        -0.615530
 O        -0.682236        -0.400791        -1.057856
 C         0.227564        -0.362561         0.032478
 C         1.474698         0.334241        -0.056995
 C         1.526352        -1.227201        -0.094596
 C        -0.565735        -0.373249         1.318243
 H        -2.908743        -1.908855         2.265966
 H        -0.314662        -2.961540         0.114831
 H        -2.081049        -3.213880         0.329551
 H        -2.626228        -1.220739        -1.259514
 H         1.660295         0.812661        -0.996258
 H         1.812496         0.837268         0.840495
 H         1.610021        -1.772701        -1.105488
 H         1.683193        -1.863473         0.696895
 H         0.057425        -0.612572         2.135791
 H        -1.121420         0.642733         1.513575
