19
Iteration:  1443
 O        -2.893902        -0.810256         1.696890
 C        -1.764658        -1.317616         0.861711
 C        -2.052603        -2.589785         0.005639
 C        -1.725298        -1.192079        -0.652854
 O        -0.366551        -0.933697        -1.062178
 C         0.410331        -0.534938         0.074336
 C         1.168266         0.765688         0.025435
 C         1.863048        -0.745741        -0.033972
 C        -0.337626        -1.081406         1.268301
 H        -3.434226        -1.627946         1.845854
 H        -1.371499        -3.401629         0.006889
 H        -3.121423        -2.849435        -0.119839
 H        -2.459307        -0.703117        -1.309116
 H         1.298400         1.246434        -0.974045
 H         1.146470         1.551530         0.861589
 H         2.118984        -0.967340        -1.096915
 H         2.440463        -1.144584         0.806041
 H         0.319588        -2.098594         1.404773
 H        -0.312269        -0.343537         2.143279
