19
Iteration:     9charge 0 multiplicity 1
 O        -2.932803        -1.123590         1.641933
 C        -1.787012        -1.380182         0.891493
 C        -1.475894        -2.615177         0.084748
 C        -1.746042        -1.238912        -0.634354
 O        -0.602144        -0.483614        -1.062720
 C         0.220447        -0.336236         0.080105
 C         1.502678         0.456875        -0.112877
 C         1.687918        -1.051641        -0.097483
 C        -0.551903        -0.637866         1.316682
 H        -3.021431        -1.679106         2.408984
 H        -0.537807        -3.068757         0.295030
 H        -2.198934        -3.266501         0.226989
 H        -2.586399        -1.242624        -1.367550
 H         1.612893         0.905573        -1.079983
 H         1.868940         1.058771         0.714815
 H         1.685727        -1.706071        -1.033203
 H         1.829305        -1.582737         0.749530
 H        -0.142711        -1.067742         2.160947
 H        -0.967786         0.418471         1.615568
