19
Iteration:  3117
 O        -2.976183        -0.930679         1.634940
 C        -1.854917        -1.419285         0.820169
 C        -1.652282        -2.600870        -0.035666
 C        -1.699346        -1.270272        -0.652895
 O        -0.533482        -0.548832        -1.029549
 C         0.320074        -0.491978         0.155300
 C         1.411363         0.496233        -0.025324
 C         1.726448        -0.988946        -0.133989
 C        -0.444103        -0.716286         1.429946
 H        -3.038546        -1.489415         2.413893
 H        -0.923520        -3.396359        -0.204135
 H        -2.674374        -2.971121        -0.111378
 H        -2.437009        -1.176608        -1.519171
 H         1.434807         0.938612        -0.952313
 H         1.675177         0.980056         0.944077
 H         1.811075        -1.349040        -1.169104
 H         2.473071        -1.447321         0.514973
 H         0.106721        -1.324430         2.093625
 H        -0.775088         0.221380         1.916883
