19
Iteration:  3113charge 0 multiplicity 1
 O        -2.989122        -0.945254         1.606577
 C        -1.818292        -1.397298         0.842999
 C        -1.614773        -2.612925        -0.005921
 C        -1.716766        -1.209753        -0.671836
 O        -0.559199        -0.552034        -1.038995
 C         0.308507        -0.487996         0.165352
 C         1.435346         0.461595        -0.022360
 C         1.691420        -0.974495        -0.148549
 C        -0.454751        -0.726732         1.424875
 H        -2.966858        -1.486504         2.447665
 H        -0.820482        -3.469046        -0.083289
 H        -2.670128        -3.014750        -0.157475
 H        -2.393097        -1.234396        -1.533519
 H         1.522965         1.088558        -0.974486
 H         1.679127         0.982950         0.984610
 H         1.758268        -1.469401        -1.109627
 H         2.429949        -1.493112         0.555278
 H         0.170571        -1.373414         2.101620
 H        -0.723882         0.215125         1.974759
