19
Iteration:  4561
 O        -2.953300        -0.940361         1.639639
 C        -1.757501        -1.194460         0.765090
 C        -1.898621        -2.575870         0.078652
 C        -1.734692        -1.136654        -0.731254
 O        -0.417780        -0.795559        -1.087161
 C         0.372115        -0.623958         0.121671
 C         1.238536         0.580723         0.007651
 C         1.819723        -0.850442        -0.015195
 C        -0.371976        -0.909434         1.387432
 H        -2.835823        -1.716161         2.200695
 H        -1.134468        -3.352067         0.133982
 H        -2.969602        -2.720269         0.050833
 H        -2.576848        -0.730598        -1.490619
 H         1.271397         1.236561        -0.983830
 H         1.297523         1.310186         0.873939
 H         2.086888        -1.140447        -1.033279
 H         2.317606        -1.303810         0.760203
 H         0.117574        -1.899400         1.708396
 H        -0.457604         0.019711         1.873595
