19
Iteration:  1198charge 0 multiplicity 1
 O        -2.771752        -0.617675         1.594969
 C        -1.747944        -1.264472         0.843249
 C        -2.014952        -2.582765        -0.038643
 C        -1.763207        -1.184759        -0.685138
 O        -0.418296        -1.069176        -1.137134
 C         0.423654        -0.734375         0.103060
 C         0.928913         0.667600         0.148352
 C         1.875134        -0.517487        -0.033117
 C        -0.249767        -1.219654         1.324058
 H        -2.575719        -0.968071         2.473782
 H        -1.173258        -3.303604        -0.115967
 H        -3.004618        -3.057756        -0.219635
 H        -2.810293        -0.678554        -1.020752
 H         0.563768         1.269738        -0.715347
 H         0.981746         1.152170         1.138380
 H         2.275806        -0.566566        -1.051532
 H         2.366953        -0.802999         0.793191
 H         0.306046        -2.106296         1.663335
 H        -0.116443        -0.514003         2.081498
