19
Iteration:   491charge 0 multiplicity 1
 O        -3.015193        -1.176186         1.595917
 C        -1.725471        -1.353715         0.891769
 C        -1.404429        -2.604184         0.035248
 C        -1.739748        -1.228482        -0.633495
 O        -0.668085        -0.454036        -1.017853
 C         0.261771        -0.459410         0.035304
 C         1.460979         0.363005        -0.128169
 C         1.644891        -1.121772        -0.064650
 C        -0.535062        -0.488886         1.405541
 H        -2.825090        -0.586309         2.338662
 H        -0.327920        -2.900070         0.083947
 H        -2.164346        -3.381680        -0.028767
 H        -2.745029        -1.115732        -1.043178
 H         1.658154         0.774798        -1.180354
 H         1.695213         1.061367         0.674587
 H         1.885763        -1.481960        -1.130953
 H         2.200786        -1.629788         0.763093
 H         0.033806        -1.048946         2.155056
 H        -0.858439         0.519056         1.919590
