19
Iteration:  1747
 O        -2.905472        -1.180181         1.508959
 C        -1.764034        -1.326970         0.849844
 C        -1.384897        -2.494927         0.067257
 C        -1.718193        -1.191416        -0.604774
 O        -0.636161        -0.457152        -1.082309
 C         0.250789        -0.378350         0.151149
 C         1.580584         0.340515         0.017752
 C         1.445253        -1.214689        -0.178334
 C        -0.595957        -0.487102         1.420897
 H        -2.877296        -1.655227         2.337442
 H        -0.375165        -3.001338         0.025863
 H        -2.108525        -3.299287         0.240838
 H        -2.689025        -0.961006        -1.219800
 H         1.761090         0.937582        -0.893838
 H         2.108985         0.515026         0.934015
 H         1.423924        -1.749296        -1.187149
 H         2.063746        -1.608293         0.598005
 H        -0.127761        -0.996579         2.231334
 H        -1.095360         0.467771         1.716783
