19
Iteration:  1976charge 0 multiplicity 1
 O        -2.859762        -0.968915         1.722832
 C        -1.776253        -1.300411         0.864737
 C        -1.802491        -2.520819        -0.082949
 C        -1.807299        -1.175737        -0.724339
 O        -0.480363        -0.790261        -1.093918
 C         0.309073        -0.509435         0.071827
 C         1.348680         0.590912         0.013843
 C         1.712743        -0.957306         0.038613
 C        -0.408624        -0.800135         1.312470
 H        -3.115773        -1.751895         2.199933
 H        -0.935851        -3.014068        -0.330755
 H        -2.600028        -3.203117        -0.140158
 H        -2.628507        -0.745403        -1.305347
 H         1.465649         1.397898        -0.766469
 H         1.612348         1.038509         0.899862
 H         1.995166        -1.216921        -1.006405
 H         2.196621        -1.295550         0.884286
 H         0.165203        -1.575924         1.729322
 H        -0.436174        -0.003529         2.144424
