19
Iteration:  3327
 O        -2.860196        -0.814276         1.581537
 C        -1.766000        -1.364434         0.862762
 C        -2.135878        -2.566114        -0.128968
 C        -1.704565        -1.069425        -0.557373
 O        -0.394300        -1.083143        -1.048786
 C         0.376406        -0.506770         0.098288
 C         1.128156         0.730499        -0.053891
 C         1.858518        -0.668902         0.031649
 C        -0.296622        -1.069796         1.385105
 H        -2.905073        -1.431728         2.378521
 H        -1.346348        -3.392201        -0.364566
 H        -3.139397        -2.986539        -0.453173
 H        -2.340161        -0.382549        -1.179692
 H         1.218960         1.200669        -1.033191
 H         1.331772         1.369270         0.899148
 H         2.347997        -1.085905        -0.924488
 H         2.483365        -0.846721         1.002693
 H         0.205750        -2.021748         1.536248
 H        -0.117396        -0.480750         2.265243
