19
Iteration:  4404charge 0 multiplicity 1
 O        -3.000526        -1.216354         1.509506
 C        -1.768472        -1.391428         0.897541
 C        -1.584665        -2.596506         0.047686
 C        -1.662313        -1.254398        -0.623471
 O        -0.600361        -0.376102        -1.088764
 C         0.305296        -0.313271         0.127898
 C         1.695355         0.336931        -0.062054
 C         1.533226        -1.178034        -0.051257
 C        -0.617039        -0.411331         1.402775
 H        -2.987971        -1.764910         2.345630
 H        -0.601667        -3.095248         0.026548
 H        -2.455512        -3.255949        -0.100632
 H        -2.666902        -1.044242        -1.132251
 H         2.083681         0.809881        -1.009716
 H         2.011267         0.847571         0.769017
 H         1.562879        -1.805821        -1.027079
 H         2.024176        -1.757809         0.796338
 H         0.008854        -0.876328         2.169312
 H        -1.000405         0.536424         1.857505
