19
Iteration:    68charge 0 multiplicity 1
 O        -2.961788        -1.384105         1.468824
 C        -1.699861        -1.277689         0.978084
 C        -1.383538        -2.556461         0.172609
 C        -1.793719        -1.151104        -0.480080
 O        -0.640029        -0.478465        -1.108363
 C         0.288326        -0.386465         0.063665
 C         1.596061         0.287138        -0.132624
 C         1.503308        -1.166341        -0.109751
 C        -0.654539        -0.305231         1.342783
 H        -2.974727        -1.835722         2.338062
 H        -0.309139        -2.665579        -0.073345
 H        -2.051268        -3.545092         0.066193
 H        -2.768877        -0.779959        -0.779577
 H         1.810393         0.833016        -1.081046
 H         2.060854         0.821622         0.708748
 H         1.633616        -1.526108        -1.084326
 H         2.253783        -1.539424         0.703930
 H        -0.111469        -0.574612         2.328116
 H        -1.009592         0.691548         1.385983
