19
Iteration:  2593charge 0 multiplicity 1
 O        -3.001421        -1.212535         1.636826
 C        -1.824161        -1.335854         0.853063
 C        -1.453086        -2.548138         0.025493
 C        -1.683473        -1.180454        -0.674482
 O        -0.609100        -0.386799        -1.011260
 C         0.226180        -0.336748         0.083130
 C         1.667004         0.287131        -0.022785
 C         1.508572        -1.163657        -0.100780
 C        -0.591531        -0.555232         1.303944
 H        -2.733966        -1.605820         2.495638
 H        -0.407682        -2.817227         0.283678
 H        -2.188215        -3.352957        -0.201158
 H        -2.653903        -1.007947        -1.377425
 H         1.894421         1.001587        -0.853419
 H         2.222859         0.538602         0.893625
 H         1.578431        -1.528855        -1.150415
 H         1.971451        -1.678108         0.742771
 H         0.018059        -1.001729         2.110311
 H        -0.951875         0.452039         1.735435
