19
Iteration:  3040charge 0 multiplicity 1
 O        -2.955635        -1.218936         1.602556
 C        -1.794294        -1.397212         0.850365
 C        -1.424426        -2.556828         0.034936
 C        -1.748656        -1.141765        -0.693052
 O        -0.533776        -0.353324        -0.980771
 C         0.308409        -0.385818         0.138023
 C         1.592771         0.266458        -0.098989
 C         1.496528        -1.184126        -0.050169
 C        -0.604649        -0.437893         1.361017
 H        -3.120416        -1.922647         2.237166
 H        -0.375320        -3.050979        -0.033070
 H        -2.331623        -3.222066         0.119567
 H        -2.582127        -0.868853        -1.422698
 H         1.583441         0.813687        -1.049269
 H         2.200211         0.819215         0.690677
 H         1.322557        -1.556448        -1.059445
 H         1.919195        -2.131422         0.446639
 H        -0.303437        -0.751387         2.323774
 H        -1.201476         0.491163         1.597404
