19
Iteration:  1297charge 0 multiplicity 1
 O        -2.644746        -0.699549         1.688972
 C        -1.671838        -1.271916         0.875854
 C        -2.096914        -2.431546        -0.086102
 C        -1.742062        -1.156200        -0.764226
 O        -0.334671        -1.211970        -1.049162
 C         0.392377        -0.662689         0.027806
 C         0.777596         0.751925         0.071996
 C         1.884644        -0.533854        -0.051457
 C        -0.195134        -1.226535         1.449630
 H        -3.438236        -1.216763         1.685630
 H        -1.553191        -3.365991        -0.239406
 H        -3.214490        -2.691967        -0.232670
 H        -2.402678        -0.441949        -1.373948
 H         0.586990         1.229807        -0.842762
 H         0.557168         1.257687         0.972387
 H         2.328244        -0.730370        -0.973228
 H         2.224854        -0.810562         0.911503
 H        -0.123637        -2.301698         1.594714
 H        -0.265180        -0.573452         2.284399
