19
Iteration:  1597
 O        -2.931583        -0.828973         1.628006
 C        -1.842649        -1.372471         0.890134
 C        -1.865211        -2.675065         0.043349
 C        -1.749019        -1.180489        -0.619322
 O        -0.439228        -0.754840        -1.050711
 C         0.373871        -0.527789         0.061460
 C         1.413145         0.648079         0.051303
 C         1.778602        -0.767787        -0.128872
 C        -0.400386        -0.981318         1.268460
 H        -3.310466        -1.587200         2.070926
 H        -0.988438        -3.298840         0.098564
 H        -2.679464        -3.256274        -0.188028
 H        -2.729362        -0.877338        -1.150232
 H         1.324146         1.101135        -0.943975
 H         1.525566         1.277339         0.919555
 H         1.881714        -1.081366        -1.169241
 H         2.165149        -1.206930         0.737023
 H        -0.022125        -1.841876         1.874196
 H        -0.540158        -0.190765         2.017638
