19
Iteration:  2896
 O        -3.039878        -0.947848         1.435680
 C        -1.722218        -1.379252         0.965278
 C        -1.633409        -2.602965         0.006038
 C        -1.736374        -1.154906        -0.542802
 O        -0.578840        -0.566953        -0.968501
 C         0.322282        -0.553279         0.056258
 C         1.422305         0.465625         0.002368
 C         1.756856        -0.956623        -0.189453
 C        -0.477964        -0.785325         1.404938
 H        -3.303435        -1.617392         2.070199
 H        -0.654434        -3.061807        -0.043755
 H        -2.595007        -3.172312         0.096740
 H        -2.473871        -0.768018        -1.238501
 H         1.369572         1.092220        -0.829678
 H         1.689973         1.024541         0.984419
 H         2.074939        -1.317442        -1.137565
 H         2.091870        -1.671863         0.570690
 H         0.190551        -1.422096         1.944345
 H        -0.487251         0.166012         1.975510
