19
Iteration:  4594
 O        -2.906732        -0.656558         1.524561
 C        -1.824804        -1.455978         0.880851
 C        -1.891137        -2.739863        -0.034394
 C        -1.773882        -1.230248        -0.571179
 O        -0.528653        -0.805599        -1.055824
 C         0.386417        -0.546370         0.069924
 C         1.402168         0.673328         0.047314
 C         1.860428        -0.731851        -0.113176
 C        -0.417362        -1.055854         1.395810
 H        -3.444383        -1.331756         1.936088
 H        -1.115104        -3.502066        -0.110151
 H        -2.828475        -3.234234        -0.220661
 H        -2.709450        -0.618981        -0.972293
 H         1.182990         1.539515        -0.730499
 H         1.775406         0.985141         1.039089
 H         2.106383        -1.220616        -1.033512
 H         2.403226        -1.064163         0.705316
 H         0.353536        -1.516570         2.091463
 H        -0.471465        -0.188796         1.990231
