19
Iteration:  2419charge 0 multiplicity 1
 O        -2.854763        -0.823018         1.593818
 C        -1.776432        -1.262826         0.827629
 C        -1.826084        -2.658452        -0.071513
 C        -1.682733        -1.242928        -0.671672
 O        -0.472916        -0.639990        -1.000186
 C         0.330015        -0.563650         0.152109
 C         1.232486         0.584453         0.015760
 C         1.763771        -0.899618        -0.099626
 C        -0.426390        -0.966411         1.381410
 H        -3.083069        -1.505054         2.216497
 H        -1.061442        -3.457126         0.110462
 H        -2.867935        -3.009793        -0.129924
 H        -2.641188        -0.816934        -1.362155
 H         0.985918         1.142778        -0.944672
 H         1.651214         1.025050         0.862259
 H         2.022408        -1.253237        -1.106879
 H         2.526651        -1.078540         0.697203
 H         0.014594        -1.873200         1.910962
 H        -0.488472        -0.235335         2.139598
