19
Iteration:   327
 O        -2.943054        -0.855177         1.609022
 C        -1.735190        -1.417488         0.945323
 C        -1.812424        -2.581124         0.033398
 C        -1.746319        -1.221474        -0.575414
 O        -0.511230        -0.792873        -1.022223
 C         0.388191        -0.613669         0.051328
 C         1.263466         0.633246        -0.118342
 C         1.876620        -0.747171        -0.140648
 C        -0.422772        -0.901397         1.398451
 H        -3.669531        -1.387022         1.261793
 H        -0.921413        -3.297489         0.008113
 H        -2.665206        -3.279880         0.008946
 H        -2.721154        -0.786975        -0.834178
 H         1.141632         1.161667        -1.076734
 H         1.399420         1.395835         0.740717
 H         2.239048        -1.128007        -1.144826
 H         2.521961        -1.002246         0.759158
 H         0.029027        -1.668641         1.940194
 H        -0.632180        -0.042187         2.123690
