19
Iteration:  3765
 O        -2.937300        -0.862285         1.429141
 C        -1.766860        -1.393302         0.879781
 C        -1.944662        -2.666804         0.008863
 C        -1.777997        -1.222135        -0.584621
 O        -0.540380        -0.779100        -0.993058
 C         0.449203        -0.540015         0.166727
 C         1.445382         0.736661         0.072781
 C         1.846079        -0.752555        -0.164283
 C        -0.434574        -0.995177         1.340126
 H        -3.064364        -1.024737         2.374150
 H        -1.207677        -3.489263         0.097056
 H        -2.941834        -3.105518        -0.177940
 H        -2.766966        -0.782917        -1.160031
 H         1.226380         1.393893        -0.746869
 H         1.684341         1.109649         1.131611
 H         1.998167        -1.141849        -1.157789
 H         2.645613        -1.333845         0.425433
 H         0.137008        -1.791784         1.891328
 H        -0.677260        -0.162046         2.009495
