19
Iteration:  4882charge 0 multiplicity 1
 O        -2.813522        -0.833858         1.735620
 C        -1.838851        -1.421472         0.850178
 C        -2.123575        -2.521580        -0.176834
 C        -1.752271        -1.114116        -0.557899
 O        -0.361082        -1.092623        -0.983285
 C         0.405050        -0.648348         0.122903
 C         1.263750         0.752118        -0.057654
 C         1.958239        -0.658965        -0.080376
 C        -0.451225        -0.956005         1.325669
 H        -3.719677        -1.106518         1.411788
 H        -1.236898        -3.184707        -0.090498
 H        -3.063052        -3.130086        -0.274842
 H        -2.397560        -0.438705        -1.253235
 H         1.187370         1.203760        -1.015936
 H         1.568645         1.342198         0.816716
 H         2.170629        -0.961841        -1.098478
 H         2.504678        -0.964423         0.929448
 H         0.078657        -1.742488         1.987165
 H        -0.634618         0.022552         1.750340
