19
Iteration:  1071
 O        -2.847377        -0.840626         1.667546
 C        -1.818630        -1.395227         0.844253
 C        -2.024017        -2.576849        -0.043958
 C        -1.687077        -1.156262        -0.606122
 O        -0.396889        -1.012118        -1.122445
 C         0.358750        -0.592165        -0.015478
 C         1.240274         0.783403         0.039903
 C         1.765360        -0.622581        -0.035168
 C        -0.376668        -1.064885         1.325551
 H        -2.678835        -1.019857         2.635059
 H        -1.044254        -3.180944        -0.105186
 H        -3.031287        -3.041601        -0.022990
 H        -2.493477        -0.507099        -0.977599
 H         1.352047         1.335888        -0.841756
 H         1.441534         1.367778         0.860896
 H         2.223235        -0.930935        -1.076209
 H         2.286558        -1.064868         0.816289
 H        -0.000929        -2.021612         1.869254
 H        -0.453387        -0.397805         2.305257
