19
Iteration:  1861
 O        -2.972472        -1.052065         1.643116
 C        -1.838563        -1.373513         0.823232
 C        -1.681314        -2.591025         0.022919
 C        -1.839982        -1.239046        -0.624341
 O        -0.683282        -0.492775        -1.031993
 C         0.363836        -0.457239         0.024994
 C         1.636585         0.445159         0.027252
 C         1.894048        -1.010574        -0.054071
 C        -0.570462        -0.696597         1.297967
 H        -3.086578        -1.697810         2.340365
 H        -0.652716        -3.081327        -0.035347
 H        -2.529847        -3.313596        -0.031933
 H        -2.597412        -1.048105        -1.364467
 H         1.930119         1.149081        -0.848838
 H         1.654181         1.070921         0.910044
 H         2.101690        -1.327152        -1.163177
 H         2.176242        -1.649728         0.774505
 H         0.023488        -1.176612         2.145463
 H        -0.917680         0.279992         1.581506
