19
Iteration:  4548
 O        -2.953118        -0.991213         1.680066
 C        -1.840313        -1.207736         0.834634
 C        -1.861628        -2.408471         0.004262
 C        -1.732674        -1.134994        -0.689259
 O        -0.419132        -0.860689        -1.141447
 C         0.396438        -0.619876         0.074089
 C         1.264543         0.575622        -0.005574
 C         1.857399        -0.842833        -0.030756
 C        -0.456134        -0.906642         1.345680
 H        -2.865367        -1.597464         2.452599
 H        -0.960498        -3.010364        -0.076442
 H        -2.728713        -3.087470        -0.031174
 H        -2.527349        -0.801328        -1.352891
 H         1.147613         1.113656        -0.908983
 H         1.526419         1.096329         0.958979
 H         2.299369        -1.397353        -0.859546
 H         2.333292        -1.039096         0.936664
 H        -0.146483        -1.642830         2.111122
 H        -0.467007        -0.057442         2.048437
