19
Iteration:    69charge 0 multiplicity 1
 O        -2.967979        -1.392554         1.467339
 C        -1.708091        -1.272700         0.978369
 C        -1.389372        -2.554891         0.162636
 C        -1.791840        -1.151023        -0.470487
 O        -0.642244        -0.487332        -1.101401
 C         0.297101        -0.385258         0.063926
 C         1.603112         0.289118        -0.143162
 C         1.505883        -1.156945        -0.105138
 C        -0.653145        -0.298390         1.347647
 H        -2.965592        -1.822939         2.327761
 H        -0.290831        -2.666716        -0.062409
 H        -2.074067        -3.567310         0.035635
 H        -2.771206        -0.766258        -0.782220
 H         1.828070         0.825724        -1.087230
 H         2.069758         0.804920         0.712666
 H         1.629498        -1.555685        -1.127941
 H         2.247957        -1.518763         0.700607
 H        -0.112871        -0.570595         2.352923
 H        -0.984377         0.681584         1.366691
