19
Iteration:  2953
 O        -2.952374        -1.168551         1.595235
 C        -1.778638        -1.339740         0.862894
 C        -1.579885        -2.543563        -0.014389
 C        -1.669729        -1.166428        -0.640312
 O        -0.548504        -0.448255        -1.086191
 C         0.265814        -0.419653         0.147265
 C         1.517466         0.406337        -0.011312
 C         1.539001        -1.191349        -0.067492
 C        -0.536469        -0.559740         1.391832
 H        -2.709095        -1.678329         2.405673
 H        -0.585750        -3.096346         0.131838
 H        -2.472273        -3.233187        -0.298016
 H        -2.460158        -0.908603        -1.294440
 H         1.677052         0.922979        -1.044207
 H         1.924452         0.865314         0.849729
 H         1.636569        -1.515723        -1.181120
 H         2.102676        -1.805837         0.695005
 H        -0.004619        -0.961654         2.244505
 H        -1.004054         0.464132         1.625685
