19
Iteration:  1492
 O        -2.839283        -0.871017         1.648848
 C        -1.741742        -1.358268         0.900725
 C        -2.012328        -2.541349        -0.079342
 C        -1.699881        -1.142627        -0.636959
 O        -0.381626        -0.898236        -1.045300
 C         0.370468        -0.586217         0.096549
 C         1.147450         0.578774        -0.021492
 C         1.821875        -0.732515        -0.065820
 C        -0.372716        -0.924238         1.371173
 H        -3.384746        -1.572532         2.036483
 H        -1.121427        -3.281511        -0.174717
 H        -2.982245        -3.046784        -0.247192
 H        -2.414688        -0.440427        -1.204357
 H         1.006155         1.212853        -0.905530
 H         1.246248         1.304817         0.756450
 H         2.234532        -0.958318        -1.090082
 H         2.361356        -1.143712         0.760525
 H         0.087382        -1.759299         1.851147
 H        -0.459117        -0.125810         2.086964
