19
Iteration:  4247
 O        -3.043444        -0.976233         1.454089
 C        -1.821070        -1.345840         0.855260
 C        -1.752002        -2.647460         0.087844
 C        -1.683674        -1.181643        -0.568231
 O        -0.505346        -0.569187        -0.980646
 C         0.301197        -0.440384         0.131849
 C         1.498599         0.547112        -0.071646
 C         1.766717        -0.972287        -0.141517
 C        -0.452067        -0.826587         1.408484
 H        -3.384483        -1.755184         1.956769
 H        -0.846754        -3.166745         0.353449
 H        -2.620327        -3.292947        -0.025130
 H        -2.375034        -0.917214        -1.271962
 H         1.601205         1.136140        -1.076102
 H         1.998711         0.982265         0.797611
 H         1.754139        -1.483115        -1.087140
 H         2.263472        -1.517624         0.576092
 H         0.047074        -1.499154         2.110196
 H        -0.765953         0.064167         1.966112
