19
Iteration:  4978charge 0 multiplicity 1
 O        -2.701684        -0.613339         1.558629
 C        -1.782067        -1.410470         0.805140
 C        -2.012545        -2.621237         0.088267
 C        -1.672858        -1.335286        -0.684180
 O        -0.394531        -0.957318        -1.050517
 C         0.319463        -0.512342         0.109500
 C         1.205670         0.677472         0.230715
 C         1.783126        -0.635944        -0.208560
 C        -0.429049        -1.130151         1.348106
 H        -3.621729        -0.595610         1.179544
 H        -1.425130        -3.556529        -0.017307
 H        -3.108345        -2.896306         0.133909
 H        -2.487949        -0.818636        -1.328087
 H         1.278386         1.457259        -0.474307
 H         1.365771         0.949972         1.336498
 H         1.890890        -0.705543        -1.288178
 H         2.359569        -1.276672         0.631803
 H         0.057580        -2.034595         1.673358
 H        -0.506795        -0.370181         2.057906
