19
Iteration:   737charge 0 multiplicity 1
 O        -2.938852        -1.022641         1.752495
 C        -1.874817        -1.294716         0.849329
 C        -1.757142        -2.533131        -0.127131
 C        -1.701130        -1.143073        -0.616787
 O        -0.478309        -0.891543        -1.033047
 C         0.394386        -0.553373         0.159732
 C         1.239790         0.605000        -0.024184
 C         1.888320        -0.869714        -0.204690
 C        -0.447457        -0.728844         1.399591
 H        -3.568224        -1.777668         1.730289
 H        -0.852863        -3.043895        -0.102316
 H        -2.706237        -3.099163        -0.201331
 H        -2.370383        -0.551192        -1.324143
 H         0.983550         1.153417        -0.978525
 H         1.555359         1.200253         1.011928
 H         1.964465        -1.141783        -1.280310
 H         2.441462        -1.130402         0.664304
 H        -0.011846        -1.595938         2.076824
 H        -0.473303         0.228936         1.970120
