19
Iteration:   549
 O        -2.855805        -1.324226         1.863724
 C        -1.796707        -1.259673         0.814496
 C        -1.384825        -2.508613         0.026969
 C        -1.716808        -1.230500        -0.717812
 O        -0.648104        -0.378119        -1.069776
 C         0.240611        -0.426378         0.073156
 C         1.619720         0.326738        -0.059659
 C         1.505352        -1.199124        -0.051271
 C        -0.628351        -0.409556         1.285968
 H        -3.737013        -1.262264         1.412187
 H        -0.338978        -2.836887        -0.094858
 H        -2.134950        -3.397648        -0.089315
 H        -2.527741        -1.344352        -1.438741
 H         1.631736         0.775672        -0.964580
 H         2.204482         0.770724         0.731825
 H         1.624073        -1.814482        -0.972477
 H         1.806826        -1.661008         0.913143
 H        -0.194295        -0.727660         2.224752
 H        -1.151587         0.633053         1.425124
