19
Iteration:  1561charge 0 multiplicity 1
 O        -2.839165        -0.784808         1.530909
 C        -1.763347        -1.378070         0.827450
 C        -1.864371        -2.620180         0.036053
 C        -1.683895        -1.200069        -0.590590
 O        -0.478298        -0.695666        -1.102642
 C         0.331471        -0.659257         0.114218
 C         1.166893         0.592017         0.062678
 C         1.761149        -0.780794        -0.109813
 C        -0.343693        -1.005363         1.380048
 H        -3.106515        -1.351173         2.255332
 H        -0.945063        -3.196382        -0.070936
 H        -2.887525        -3.139964         0.013593
 H        -2.485305        -0.769620        -1.078519
 H         0.867196         1.145268        -0.821538
 H         1.361508         1.266243         0.935882
 H         2.086477        -1.207215        -1.037049
 H         2.389046        -1.237808         0.723052
 H         0.208825        -1.720054         1.919613
 H        -0.467884        -0.069578         1.963084
