19
Iteration:  1065charge 0 multiplicity 1
 O        -2.874266        -0.808181         1.638926
 C        -1.771873        -1.428495         0.863762
 C        -2.015574        -2.617744        -0.009550
 C        -1.713035        -1.169761        -0.599626
 O        -0.446771        -1.000866        -1.136404
 C         0.335330        -0.546240        -0.002256
 C         1.316222         0.784963         0.029643
 C         1.785332        -0.591733        -0.041692
 C        -0.404552        -1.122050         1.358287
 H        -2.628532        -1.088600         2.541684
 H        -1.197999        -3.243904        -0.174825
 H        -3.043886        -2.963813        -0.069852
 H        -2.450238        -0.501724        -1.014975
 H         1.432764         1.352502        -0.951242
 H         1.455060         1.260958         1.071824
 H         2.311808        -0.906798        -0.930465
 H         2.224356        -0.961873         0.891125
 H         0.194934        -1.968830         1.654277
 H        -0.358577        -0.340263         2.053769
