19
Iteration:  2678charge 0 multiplicity 1
 O        -3.026266        -1.272321         1.649696
 C        -1.799607        -1.264400         0.788275
 C        -1.614803        -2.571476         0.013337
 C        -1.665817        -1.116312        -0.605273
 O        -0.595646        -0.404093        -1.022726
 C         0.355914        -0.447243         0.126572
 C         1.561082         0.345189        -0.088347
 C         1.660664        -1.160273        -0.067303
 C        -0.558244        -0.480105         1.333541
 H        -2.814270        -1.946614         2.335763
 H        -0.753850        -3.202421         0.145860
 H        -2.516321        -3.099094        -0.201470
 H        -2.569704        -1.124021        -1.377244
 H         1.509328         0.940485        -1.048704
 H         2.052945         0.829056         0.707366
 H         1.897548        -1.770452        -0.908800
 H         2.069039        -1.619180         0.773419
 H        -0.268377        -1.059856         2.193302
 H        -0.744622         0.626848         1.641411
