19
Iteration:  1449charge 0 multiplicity 1
 O        -2.860643        -0.819428         1.689071
 C        -1.838363        -1.306530         0.853968
 C        -2.037982        -2.581824        -0.010174
 C        -1.758605        -1.166380        -0.657143
 O        -0.338610        -0.915338        -1.036095
 C         0.402090        -0.507184         0.038665
 C         1.152356         0.672119         0.017172
 C         1.887916        -0.707484        -0.030844
 C        -0.337242        -1.076572         1.285897
 H        -3.423277        -1.621915         1.781149
 H        -1.253697        -3.436739        -0.057014
 H        -3.049893        -3.030622        -0.036222
 H        -2.660443        -0.700717        -1.094943
 H         1.222482         1.102602        -0.961452
 H         1.149291         1.439835         0.714802
 H         2.314028        -1.010526        -1.002999
 H         2.473864        -1.115142         0.777982
 H         0.216707        -1.897346         1.599115
 H        -0.247495        -0.475872         2.166527
