19
Iteration:  1170charge 0 multiplicity 1
 O        -2.746964        -0.674401         1.638629
 C        -1.788212        -1.401088         0.843085
 C        -2.054636        -2.580820         0.071242
 C        -1.713029        -1.208051        -0.698238
 O        -0.350303        -0.967159        -1.091607
 C         0.409253        -0.641693         0.105801
 C         1.049844         0.691253         0.035644
 C         1.855319        -0.519231        -0.067493
 C        -0.398824        -1.220811         1.280078
 H        -3.217996        -1.361176         2.171654
 H        -1.409605        -3.452867         0.096392
 H        -3.206103        -2.703249        -0.025118
 H        -2.440372        -0.700327        -1.284822
 H         1.066810         1.308890        -0.845745
 H         1.070148         1.234145         0.952654
 H         2.198953        -0.574810        -1.150200
 H         2.534540        -0.878397         0.804358
 H         0.184489        -2.090853         1.741171
 H        -0.341956        -0.545590         2.243635
