19
Iteration:  1659
 O        -2.943577        -0.987276         1.626923
 C        -1.712494        -1.410076         0.909957
 C        -1.740247        -2.531605        -0.067978
 C        -1.755388        -1.109639        -0.562676
 O        -0.455331        -0.746766        -1.103654
 C         0.275910        -0.461507         0.117022
 C         1.386207         0.516769        -0.081043
 C         1.720117        -0.919120        -0.097327
 C        -0.508932        -0.799781         1.387811
 H        -3.046886        -1.503951         2.429171
 H        -0.691276        -2.931015        -0.236810
 H        -2.602928        -3.334022        -0.238092
 H        -2.540089        -0.618147        -1.152480
 H         1.474705         1.212110        -0.946020
 H         1.569060         1.016980         0.878777
 H         1.939292        -1.692017        -0.854235
 H         2.338939        -1.218396         0.804276
 H         0.012250        -1.356532         2.121437
 H        -0.865980         0.156866         1.850206
