19
Iteration:  2647
 O        -2.997273        -1.295768         1.541019
 C        -1.703350        -1.291376         0.911297
 C        -1.454352        -2.485598        -0.043105
 C        -1.754107        -1.075074        -0.533194
 O        -0.630966        -0.468349        -1.105458
 C         0.272886        -0.368224         0.131392
 C         1.639267         0.280936        -0.112629
 C         1.575711        -1.246405        -0.021048
 C        -0.600293        -0.404745         1.448127
 H        -3.060730        -2.041884         2.151401
 H        -0.418128        -2.779470        -0.319058
 H        -2.166503        -3.298352        -0.092576
 H        -2.759360        -0.976802        -1.082303
 H         1.745890         0.813967        -1.133978
 H         2.050365         0.882093         0.634709
 H         1.543395        -1.697090        -1.029888
 H         1.833644        -1.801844         0.856943
 H        -0.195923        -1.000954         2.268597
 H        -1.046309         0.626359         1.708421
