19
Iteration:  4423
 O        -3.035203        -1.127111         1.485215
 C        -1.746973        -1.296136         0.853394
 C        -1.493599        -2.627658         0.102514
 C        -1.670925        -1.209067        -0.632025
 O        -0.613233        -0.455098        -0.957318
 C         0.271115        -0.439068         0.103734
 C         1.540815         0.353005         0.052346
 C         1.550652        -1.133219        -0.163602
 C        -0.500792        -0.541995         1.298653
 H        -2.915038        -1.429326         2.429753
 H        -0.620518        -3.261065         0.164228
 H        -2.447829        -3.151722         0.047717
 H        -2.518738        -0.968753        -1.431957
 H         1.752775         1.119392        -0.715762
 H         1.999230         0.806493         0.960563
 H         1.804596        -1.490959        -1.175171
 H         1.884255        -1.705527         0.698157
 H         0.057466        -0.997404         2.082427
 H        -0.845767         0.535742         1.412624
