19
Iteration:  1471charge 0 multiplicity 1
 O        -2.808108        -0.813502         1.667036
 C        -1.746177        -1.328609         0.899649
 C        -1.922848        -2.516194        -0.078391
 C        -1.770322        -1.105560        -0.664721
 O        -0.529309        -0.923879        -1.103689
 C         0.461544        -0.707792         0.091780
 C         1.169957         0.689513        -0.036220
 C         1.894016        -0.687122        -0.004407
 C        -0.442774        -1.089787         1.414975
 H        -3.362717        -1.599991         1.752395
 H        -1.102449        -3.335899        -0.298421
 H        -2.925875        -3.010408        -0.170054
 H        -2.600903        -0.667499        -1.266418
 H         1.051800         1.283731        -0.932171
 H         1.347696         1.405114         0.691941
 H         2.386887        -1.242376        -0.861697
 H         2.508458        -0.742985         0.873611
 H         0.105054        -1.717013         1.992972
 H        -0.537431        -0.223284         2.036529
