19
Iteration:  4311charge 0 multiplicity 1
 O        -2.992054        -1.142292         1.551550
 C        -1.720533        -1.300610         0.914791
 C        -1.577416        -2.638111        -0.063090
 C        -1.725801        -1.273549        -0.655407
 O        -0.615783        -0.450141        -1.078205
 C         0.326163        -0.369176         0.107299
 C         1.545853         0.369747         0.090160
 C         1.615844        -1.182651        -0.085823
 C        -0.542520        -0.451064         1.356882
 H        -2.966207        -1.456027         2.455213
 H        -0.660292        -3.234366        -0.159729
 H        -2.485961        -3.252462        -0.025849
 H        -2.543060        -1.151663        -1.252589
 H         1.825203         0.910891        -0.888340
 H         1.950193         0.905900         1.011507
 H         1.751516        -1.659250        -1.033746
 H         1.878150        -1.786223         0.713531
 H         0.056577        -0.767860         2.276072
 H        -0.958103         0.529647         1.649026
