19
Iteration:   250charge 0 multiplicity 1
 O        -2.874757        -0.911261         1.600528
 C        -1.737097        -1.400528         0.952010
 C        -1.862601        -2.604316        -0.001677
 C        -1.742316        -1.233042        -0.595988
 O        -0.548990        -0.764789        -1.095622
 C         0.322072        -0.515512        -0.020434
 C         1.251534         0.592102        -0.097000
 C         1.859480        -0.762741         0.056483
 C        -0.362751        -0.895346         1.307388
 H        -3.122912        -1.548016         2.321255
 H        -1.144543        -3.402667        -0.148671
 H        -2.888305        -3.018460         0.125167
 H        -2.678049        -0.672368        -0.891156
 H         1.348530         1.084871        -1.107261
 H         1.306318         1.295076         0.794675
 H         2.447003        -1.165292        -0.867118
 H         2.219548        -1.071688         0.989642
 H         0.133897        -1.563416         1.938418
 H        -0.392598         0.117607         1.852160
