19
Iteration:    43charge 0 multiplicity 1
 O        -2.913594        -1.196273         1.637851
 C        -1.747123        -1.259693         0.873709
 C        -1.317446        -2.595131         0.071968
 C        -1.646400        -1.350110        -0.643096
 O        -0.724144        -0.377545        -1.011635
 C         0.226507        -0.382604         0.004595
 C         1.484556         0.343321        -0.066367
 C         1.465202        -1.185471        -0.075210
 C        -0.536826        -0.408309         1.310210
 H        -2.881786        -1.892873         2.294584
 H        -0.398482        -3.027297         0.335510
 H        -2.090500        -3.224152        -0.051586
 H        -2.425286        -1.433246        -1.389857
 H         1.838715         0.858403        -0.941422
 H         1.760253         0.841161         0.854583
 H         1.625995        -1.675101        -1.026030
 H         1.649437        -1.694685         0.824453
 H        -0.015606        -0.782228         2.141971
 H        -0.822085         0.684735         1.528506
