19
Iteration:   849
 O        -2.927351        -0.765777         1.511635
 C        -1.810000        -1.385042         0.905460
 C        -1.915548        -2.631882        -0.004372
 C        -1.714621        -1.277122        -0.559537
 O        -0.470418        -0.876625        -1.017046
 C         0.401591        -0.536597         0.114087
 C         1.254733         0.645147         0.134096
 C         1.842881        -0.649658        -0.295252
 C        -0.366902        -1.011689         1.369945
 H        -2.977851        -1.464285         2.220413
 H        -1.075980        -3.381656         0.035839
 H        -2.919328        -2.965569        -0.200615
 H        -2.474402        -0.832103        -1.133258
 H         1.204197         1.517807        -0.655173
 H         1.379229         1.040584         1.252374
 H         2.035907        -0.728120        -1.411294
 H         2.562912        -1.263250         0.225117
 H         0.045708        -1.903890         1.996587
 H        -0.532649        -0.170747         2.082505
