19
Iteration:  1444
 O        -2.890646        -0.811707         1.697083
 C        -1.776471        -1.313963         0.861933
 C        -2.049614        -2.594791         0.002651
 C        -1.729682        -1.187709        -0.653606
 O        -0.358717        -0.929883        -1.055741
 C         0.411625        -0.528301         0.066230
 C         1.163152         0.747388         0.024211
 C         1.867733        -0.742388        -0.035931
 C        -0.338490        -1.081461         1.270668
 H        -3.420816        -1.620437         1.826872
 H        -1.385751        -3.382805        -0.003585
 H        -3.094268        -2.880893        -0.102329
 H        -2.534086        -0.685755        -1.292551
 H         1.292582         1.223776        -0.972556
 H         1.139196         1.571139         0.849841
 H         2.136070        -0.972283        -1.063643
 H         2.457129        -1.144793         0.810574
 H         0.317506        -2.053145         1.419168
 H        -0.301036        -0.366802         2.139706
