19
Iteration:  2889charge 0 multiplicity 1
 O        -2.977362        -0.977174         1.474673
 C        -1.770351        -1.337810         0.912489
 C        -1.703639        -2.558809        -0.034648
 C        -1.707701        -1.155054        -0.627039
 O        -0.526916        -0.622334        -0.944308
 C         0.319919        -0.520072         0.087095
 C         1.377825         0.485321        -0.004958
 C         1.703869        -0.951894        -0.130559
 C        -0.425223        -0.805775         1.414790
 H        -3.295570        -1.467272         2.233436
 H        -0.841517        -3.314539        -0.035271
 H        -2.572858        -3.248048         0.227459
 H        -2.552022        -0.974530        -1.268609
 H         1.427992         1.298400        -0.855489
 H         1.644788         0.891274         0.905618
 H         1.834845        -1.238176        -1.255384
 H         2.144242        -1.633025         0.655432
 H         0.380229        -1.392547         1.923683
 H        -0.453918         0.213607         1.876837
