19
Iteration:  3269charge 0 multiplicity 1
 O        -2.931717        -0.739894         1.564939
 C        -1.785565        -1.269607         0.912586
 C        -1.888538        -2.530166         0.067687
 C        -1.744359        -1.265727        -0.710296
 O        -0.437659        -0.893332        -1.013618
 C         0.394390        -0.618459         0.068734
 C         1.171965         0.667102         0.162824
 C         1.877494        -0.693244        -0.157553
 C        -0.363163        -1.132561         1.253833
 H        -3.306946        -1.397503         2.135993
 H        -1.015565        -3.171015        -0.022799
 H        -2.869956        -2.978971        -0.066221
 H        -2.426148        -0.750775        -1.394598
 H         1.196158         1.475506        -0.610636
 H         1.316509         1.069302         1.126540
 H         2.094091        -0.896870        -1.200438
 H         2.371771        -1.273552         0.621949
 H         0.033549        -2.048044         1.651086
 H        -0.240020        -0.374792         2.064858
