19
Iteration:  2130charge 0 multiplicity 1
 O        -3.014142        -1.309694         1.642327
 C        -1.780594        -1.248915         0.881464
 C        -1.539030        -2.506602        -0.036895
 C        -1.782753        -1.203024        -0.689369
 O        -0.633810        -0.490365        -1.064757
 C         0.269800        -0.372126         0.064318
 C         1.684090         0.343712        -0.012967
 C         1.610351        -1.116209        -0.024694
 C        -0.529457        -0.448989         1.368351
 H        -2.930268        -1.930518         2.402685
 H        -0.526687        -2.937513        -0.230924
 H        -2.356689        -3.275586         0.055074
 H        -2.720988        -0.769444        -1.197322
 H         2.029572         0.646956        -1.030483
 H         1.942008         0.940575         0.979690
 H         1.596153        -1.597899        -1.036519
 H         2.012247        -1.960625         0.720547
 H         0.052957        -0.944809         2.108483
 H        -0.742415         0.668635         1.685089
