19
Iteration:  1310charge 0 multiplicity 1
 O        -2.625293        -0.704445         1.688940
 C        -1.734272        -1.324674         0.801911
 C        -2.170745        -2.474589        -0.044503
 C        -1.657075        -1.150367        -0.650194
 O        -0.345545        -1.175207        -1.075805
 C         0.382372        -0.721388         0.073650
 C         0.873728         0.700318         0.072985
 C         1.843217        -0.441479        -0.023186
 C        -0.320533        -1.222854         1.296699
 H        -3.421313        -1.296009         1.708142
 H        -1.509073        -3.385044        -0.074968
 H        -3.291520        -2.572277        -0.057369
 H        -2.322185        -0.563835        -1.221050
 H         0.838176         1.226139        -0.829318
 H         0.837754         1.337595         0.920360
 H         2.446793        -0.415911        -0.894339
 H         2.525682        -0.784133         0.800390
 H         0.225884        -1.996337         1.719294
 H        -0.193883        -0.459420         2.092900
