19
Iteration:  1595charge 0 multiplicity 1
 O        -2.915493        -0.816991         1.622982
 C        -1.851727        -1.367640         0.872546
 C        -1.847438        -2.657734         0.031739
 C        -1.742080        -1.192869        -0.615673
 O        -0.464789        -0.763522        -1.037803
 C         0.361014        -0.526650         0.064513
 C         1.408940         0.637469         0.041722
 C         1.773102        -0.756989        -0.126299
 C        -0.395122        -0.998161         1.286020
 H        -3.325953        -1.568741         2.065551
 H        -0.920407        -3.255518         0.014050
 H        -2.781323        -3.293870        -0.159779
 H        -2.649584        -0.936879        -1.173043
 H         1.356494         1.153598        -0.908698
 H         1.526975         1.320311         0.912867
 H         1.881482        -1.072260        -1.137531
 H         2.219608        -1.282279         0.777557
 H         0.028478        -1.813286         1.841957
 H        -0.539031        -0.197232         2.050683
