19
Iteration:  3288
 O        -2.848504        -0.762539         1.635060
 C        -1.837633        -1.295134         0.856266
 C        -2.032098        -2.669822        -0.011431
 C        -1.670362        -1.135683        -0.650322
 O        -0.390176        -0.902038        -1.191746
 C         0.405772        -0.642317         0.118892
 C         1.151670         0.637264         0.120079
 C         1.880134        -0.672529        -0.098486
 C        -0.377627        -1.054767         1.373631
 H        -3.162699        -1.400900         2.280285
 H        -1.231671        -3.307909         0.169428
 H        -3.031582        -2.898105        -0.298630
 H        -2.471937        -0.799876        -1.236902
 H         1.065773         1.300000        -0.732627
 H         1.208340         1.157217         1.019670
 H         2.342907        -0.890041        -1.089313
 H         2.536432        -0.888381         0.636519
 H         0.083034        -1.982372         1.822007
 H        -0.563263        -0.253967         2.129237
