19
Iteration:   802charge 0 multiplicity 1
 O        -2.850183        -0.867005         1.626315
 C        -1.822970        -1.354490         0.905370
 C        -1.873194        -2.654303        -0.042647
 C        -1.791416        -1.169718        -0.631590
 O        -0.546812        -0.743384        -1.069986
 C         0.384092        -0.591807         0.043860
 C         1.231037         0.641760        -0.079889
 C         1.932235        -0.721212         0.019734
 C        -0.398665        -1.030970         1.329961
 H        -2.923656        -1.284141         2.489632
 H        -1.030691        -3.280290        -0.034914
 H        -2.883308        -3.089111        -0.173882
 H        -2.582779        -0.744926        -1.381055
 H         1.303600         1.080450        -1.061693
 H         1.271365         1.371059         0.884674
 H         2.481195        -1.062412        -0.825919
 H         2.418191        -0.992741         1.031067
 H         0.087940        -1.944829         1.793167
 H        -0.536828        -0.308535         2.136871
