19
Iteration:  3727charge 0 multiplicity 1
 O        -2.843882        -0.809716         1.607550
 C        -1.797681        -1.277702         0.800411
 C        -1.865004        -2.541052        -0.028756
 C        -1.769854        -1.206754        -0.676227
 O        -0.486281        -0.865819        -1.048727
 C         0.396701        -0.640142         0.116108
 C         1.191408         0.669146         0.079579
 C         1.819760        -0.778370        -0.035478
 C        -0.348422        -1.023159         1.321758
 H        -3.084671        -1.552130         2.151515
 H        -0.966735        -3.193419        -0.091450
 H        -2.894855        -2.862925        -0.106653
 H        -2.483960        -0.882566        -1.300226
 H         1.080325         1.225421        -0.880353
 H         1.083127         1.348944         0.899599
 H         2.220152        -1.039804        -1.014518
 H         2.402196        -1.047351         0.854474
 H         0.003693        -1.937459         1.787586
 H        -0.407429        -0.265618         2.129995
