19
Iteration:  3787charge 0 multiplicity 1
 O        -3.016009        -0.875592         1.520620
 C        -1.811421        -1.281713         0.873629
 C        -1.834932        -2.589192         0.013085
 C        -1.713845        -1.234673        -0.648519
 O        -0.430351        -0.799378        -1.041898
 C         0.319705        -0.490282         0.126847
 C         1.360973         0.568022         0.102111
 C         1.749158        -0.795744        -0.231108
 C        -0.373080        -0.918815         1.444272
 H        -3.083127        -1.447827         2.328547
 H        -0.880299        -3.136328        -0.183868
 H        -2.607932        -3.337910        -0.072474
 H        -2.583279        -0.763287        -1.320087
 H         1.435017         1.173207        -0.795538
 H         1.491861         0.995686         1.131676
 H         2.093485        -1.017296        -1.191400
 H         2.442243        -1.302072         0.532264
 H         0.160908        -1.838734         1.790117
 H        -0.502554        -0.204284         2.255758
