19
Iteration:   232charge 0 multiplicity 1
 O        -2.873977        -0.961477         1.462079
 C        -1.710847        -1.313291         0.893895
 C        -1.801584        -2.609019         0.037316
 C        -1.842115        -1.161301        -0.572171
 O        -0.601206        -0.747917        -1.057310
 C         0.348005        -0.554400         0.122682
 C         1.271437         0.637144        -0.171124
 C         1.802352        -0.826791         0.003383
 C        -0.322810        -0.908335         1.462765
 H        -2.892914        -1.223402         2.414347
 H        -0.857100        -3.286905        -0.224218
 H        -2.755549        -3.252124         0.004461
 H        -2.629234        -0.763728        -1.184320
 H         1.220091         0.942955        -1.207137
 H         1.414562         1.509034         0.484762
 H         2.304909        -1.292438        -0.908840
 H         2.212877        -1.090998         0.980455
 H         0.386653        -1.732924         1.869987
 H        -0.550980        -0.218207         2.270337
