19
Iteration:  2632charge 0 multiplicity 1
 O        -2.914648        -1.247593         1.510911
 C        -1.718800        -1.295882         0.853657
 C        -1.389203        -2.528850        -0.022278
 C        -1.791684        -1.152082        -0.633437
 O        -0.676960        -0.360649        -0.958657
 C         0.267845        -0.398650         0.107244
 C         1.546141         0.256793        -0.089061
 C         1.469962        -1.238204        -0.003055
 C        -0.538735        -0.439088         1.355001
 H        -2.938622        -2.023184         2.073393
 H        -0.414937        -2.940769         0.019779
 H        -2.191761        -3.271198        -0.022548
 H        -2.789286        -0.767592        -1.104762
 H         1.737612         0.617620        -1.024589
 H         2.115001         0.718672         0.805924
 H         1.757826        -1.884002        -0.775748
 H         2.003348        -1.651278         0.861567
 H         0.134497        -0.695813         2.170803
 H        -0.916904         0.597807         1.641516
