19
Iteration:  2050charge 0 multiplicity 1
 O        -3.097069        -1.010302         1.489915
 C        -1.826219        -1.381585         0.922250
 C        -1.735196        -2.580404         0.099082
 C        -1.723443        -1.142970        -0.544329
 O        -0.463360        -0.602368        -1.035123
 C         0.367630        -0.473562         0.111565
 C         1.521243         0.545617         0.013750
 C         1.742185        -0.958234        -0.239640
 C        -0.483885        -0.862003         1.378012
 H        -3.199782        -1.583376         2.282656
 H        -0.767904        -2.977045         0.023510
 H        -2.476300        -3.323614        -0.071034
 H        -2.656724        -0.884492        -1.015986
 H         1.501278         1.107721        -0.926069
 H         1.838606         1.107996         0.781308
 H         1.780558        -1.124727        -1.318655
 H         2.382763        -1.331990         0.432664
 H         0.066248        -1.594931         2.016638
 H        -0.666940         0.056330         1.930394
