19
Iteration:   830
 O        -2.887717        -0.825994         1.553080
 C        -1.765576        -1.304503         0.882946
 C        -1.843135        -2.606117         0.016697
 C        -1.710772        -1.224154        -0.672028
 O        -0.427937        -0.790587        -1.068959
 C         0.321899        -0.595355         0.119845
 C         1.158105         0.703700         0.102215
 C         1.746408        -0.787082        -0.169172
 C        -0.335003        -1.063778         1.382205
 H        -2.953737        -0.954168         2.526816
 H        -0.923897        -3.240701        -0.045404
 H        -2.815198        -3.171767         0.015001
 H        -2.480751        -0.860055        -1.315816
 H         1.032992         1.267939        -0.821542
 H         1.453934         1.142200         0.960594
 H         1.871418        -0.962276        -1.273899
 H         2.358911        -1.136254         0.583444
 H         0.153168        -1.960135         1.754633
 H        -0.320130        -0.323071         2.215295
