19
Iteration:  2950
 O        -2.953245        -1.162116         1.597849
 C        -1.787382        -1.315858         0.858882
 C        -1.576360        -2.558068         0.006371
 C        -1.658829        -1.184667        -0.638086
 O        -0.531462        -0.452213        -1.073940
 C         0.282011        -0.396908         0.157034
 C         1.504618         0.412472        -0.025963
 C         1.540544        -1.191651        -0.092615
 C        -0.579017        -0.596671         1.391121
 H        -2.743735        -1.652782         2.386548
 H        -0.627178        -3.093178         0.083361
 H        -2.472435        -3.127517        -0.348637
 H        -2.484308        -0.911452        -1.250737
 H         1.667743         0.903238        -1.006104
 H         1.950423         0.882416         0.859471
 H         1.778699        -1.437496        -1.144672
 H         2.038740        -1.828942         0.622449
 H         0.021847        -0.964380         2.209395
 H        -0.900664         0.448655         1.627556
