19
Iteration:  1066
 O        -2.871350        -0.812106         1.645438
 C        -1.779128        -1.426717         0.857939
 C        -2.019005        -2.614025        -0.013411
 C        -1.702134        -1.167706        -0.598573
 O        -0.440978        -1.003562        -1.136081
 C         0.339539        -0.553937        -0.008336
 C         1.308084         0.784836         0.030228
 C         1.780652        -0.594678        -0.043979
 C        -0.403058        -1.114090         1.355237
 H        -2.636044        -1.073886         2.540551
 H        -1.155709        -3.228455        -0.166602
 H        -3.037005        -2.966264        -0.057086
 H        -2.471603        -0.477533        -1.010986
 H         1.428354         1.344262        -0.942685
 H         1.464668         1.278508         1.065334
 H         2.269681        -0.890691        -0.899745
 H         2.224495        -0.968313         0.876152
 H         0.166243        -1.981367         1.690697
 H        -0.369395        -0.349996         2.099140
