19
Iteration:  1308
 O        -2.621888        -0.707951         1.685126
 C        -1.723121        -1.306775         0.818467
 C        -2.159332        -2.481384        -0.050764
 C        -1.657435        -1.144752        -0.671519
 O        -0.351853        -1.181430        -1.068082
 C         0.381714        -0.708093         0.063357
 C         0.856455         0.698553         0.078014
 C         1.847737        -0.454200        -0.029950
 C        -0.315243        -1.216676         1.315058
 H        -3.416215        -1.287122         1.700385
 H        -1.544704        -3.379809        -0.073077
 H        -3.292559        -2.574947        -0.093889
 H        -2.382132        -0.514037        -1.273677
 H         0.816611         1.227136        -0.830934
 H         0.798998         1.354834         0.908069
 H         2.484768        -0.449497        -0.854519
 H         2.492193        -0.795849         0.765601
 H         0.251099        -2.077543         1.787706
 H        -0.193476        -0.516604         2.122326
