19
Iteration:  3545charge 0 multiplicity 1
 O        -2.739948        -0.635788         1.622977
 C        -1.762891        -1.327040         0.859571
 C        -2.079265        -2.476173        -0.002510
 C        -1.690457        -1.183491        -0.647583
 O        -0.296428        -1.096728        -1.071401
 C         0.394642        -0.609431         0.174175
 C         0.954133         0.752540         0.065119
 C         1.843425        -0.527780        -0.075124
 C        -0.352974        -1.340413         1.294924
 H        -3.439957        -1.307981         1.798134
 H        -1.375432        -3.255429        -0.367207
 H        -3.085359        -2.874681        -0.167792
 H        -2.286708        -0.595093        -1.298102
 H         0.740090         1.255095        -0.834197
 H         0.911315         1.325370         1.002797
 H         2.282249        -0.781325        -1.017639
 H         2.513953        -0.846294         0.815632
 H         0.053545        -2.418161         1.282883
 H        -0.208562        -0.831643         2.244014
