19
Iteration:  3835charge 0 multiplicity 1
 O        -2.891483        -0.990216         1.678076
 C        -1.875096        -1.369319         0.831067
 C        -1.805875        -2.590597        -0.095469
 C        -1.805906        -1.242928        -0.685124
 O        -0.578678        -0.631991        -1.057549
 C         0.370573        -0.470465         0.080465
 C         1.452187         0.544264        -0.057544
 C         1.885543        -0.944120         0.078727
 C        -0.436723        -0.719828         1.371592
 H        -3.386502        -1.781885         1.871565
 H        -0.989328        -3.290704        -0.087902
 H        -2.741410        -3.213264        -0.160562
 H        -2.626904        -0.920420        -1.212911
 H         1.628271         1.021144        -1.071541
 H         1.519365         1.151606         0.852065
 H         2.119610        -1.496064        -0.910748
 H         2.463811        -1.373666         0.828648
 H         0.025595        -1.429913         2.041430
 H        -0.718714         0.219712         1.940122
