19
Iteration:   631charge 0 multiplicity 1
 O        -3.042394        -1.197300         1.631779
 C        -1.834667        -1.304481         0.890661
 C        -1.571706        -2.523516         0.030690
 C        -1.731602        -1.196555        -0.661696
 O        -0.521584        -0.525836        -1.045293
 C         0.358537        -0.588948         0.110119
 C         1.449800         0.453672        -0.015135
 C         1.715031        -1.039058        -0.234697
 C        -0.538001        -0.564215         1.393476
 H        -2.936606        -1.346597         2.599238
 H        -0.626552        -3.005112         0.221992
 H        -2.550901        -3.060164         0.151197
 H        -2.576402        -1.036579        -1.327878
 H         1.293994         1.229819        -0.848822
 H         1.957194         1.045456         0.837079
 H         1.960663        -1.518972        -1.263026
 H         2.385498        -1.572622         0.441954
 H        -0.088301        -1.055672         2.289671
 H        -0.782620         0.452856         1.651794
