19
Iteration:  3603charge 0 multiplicity 1
 O        -2.806354        -0.730867         1.535466
 C        -1.795888        -1.335067         0.844041
 C        -2.089121        -2.572769         0.017709
 C        -1.650522        -1.171214        -0.656473
 O        -0.396257        -0.969016        -1.124845
 C         0.380611        -0.708441         0.115123
 C         1.069670         0.680819         0.128053
 C         1.901029        -0.499237        -0.068186
 C        -0.354892        -1.210475         1.325971
 H        -2.880579        -1.304445         2.299344
 H        -1.407617        -3.389673         0.290041
 H        -3.154905        -2.712328        -0.109712
 H        -2.651012        -0.709086        -1.194298
 H         1.140702         1.460756        -0.691027
 H         1.315713         1.223561         1.085026
 H         2.343232        -0.784484        -1.090465
 H         2.434245        -0.850992         0.736263
 H        -0.024905        -2.136917         1.844838
 H        -0.209376        -0.398178         2.077090
