19
Iteration:  1254charge 0 multiplicity 1
 O        -2.724210        -0.645512         1.631004
 C        -1.789711        -1.344548         0.904022
 C        -2.281392        -2.524925        -0.061482
 C        -1.654048        -1.261676        -0.677430
 O        -0.316104        -1.090762        -1.020855
 C         0.516224        -0.695451         0.152318
 C         0.937433         0.780143         0.012928
 C         1.975710        -0.364187        -0.143961
 C        -0.331847        -1.355475         1.385120
 H        -3.450896        -1.180244         1.952008
 H        -1.754369        -3.481835        -0.225735
 H        -3.443471        -2.708056        -0.122170
 H        -2.482744        -0.775675        -1.303362
 H         0.571085         1.313936        -0.826670
 H         0.959397         1.310667         0.916712
 H         2.402237        -0.538060        -1.130508
 H         2.690875        -0.588341         0.633689
 H         0.171884        -2.272182         1.526932
 H        -0.279916        -0.703276         2.264430
