19
Iteration:  2546charge 0 multiplicity 1
 O        -3.012302        -1.110329         1.515527
 C        -1.758954        -1.381377         0.958174
 C        -1.627718        -2.557531         0.027654
 C        -1.789627        -1.126264        -0.553640
 O        -0.551024        -0.448416        -0.984596
 C         0.345444        -0.525074         0.053839
 C         1.456160         0.465974        -0.046467
 C         1.762316        -1.119899        -0.133531
 C        -0.488718        -0.676942         1.326368
 H        -3.260014        -1.855463         2.123157
 H        -0.643605        -2.994873        -0.102931
 H        -2.452207        -3.198500        -0.144930
 H        -2.733206        -0.896197        -1.134279
 H         1.459017         1.142816        -0.905722
 H         1.641859         0.994101         0.890154
 H         1.792393        -1.725784        -0.994865
 H         2.161595        -1.444282         0.779325
 H         0.160177        -1.055575         2.110127
 H        -0.714189         0.439624         1.597246
