19
Iteration:  3070
 O        -3.065300        -1.150257         1.488376
 C        -1.768042        -1.280319         0.878828
 C        -1.439713        -2.572486         0.037440
 C        -1.737243        -1.199608        -0.550413
 O        -0.710321        -0.378965        -0.999410
 C         0.275413        -0.481746        -0.008347
 C         1.575790         0.326341        -0.023038
 C         1.683016        -1.140822        -0.129201
 C        -0.447144        -0.539606         1.434002
 H        -3.372936        -1.604558         2.317822
 H        -0.473449        -3.110812         0.357954
 H        -2.302145        -3.248532        -0.263455
 H        -2.564977        -1.132928        -1.207517
 H         1.664323         1.070119        -0.907971
 H         1.855143         0.649050         0.998928
 H         1.820359        -1.552234        -1.159592
 H         1.931710        -1.873893         0.678046
 H         0.049581        -1.134959         2.201806
 H        -0.723655         0.484347         1.785460
