19
Iteration:  2478
 O        -2.898900        -0.986309         1.593818
 C        -1.790711        -1.345155         0.906065
 C        -1.821702        -2.501620        -0.041500
 C        -1.803417        -1.159369        -0.622650
 O        -0.521516        -0.708381        -1.086231
 C         0.374857        -0.613114         0.046570
 C         1.327307         0.489032         0.032119
 C         1.896252        -0.854488        -0.075046
 C        -0.439514        -0.789793         1.400507
 H        -3.172732        -1.619187         2.295914
 H        -0.874921        -3.054256        -0.182087
 H        -2.768099        -3.113965        -0.191862
 H        -2.499211        -0.754667        -1.205656
 H         1.284635         1.167692        -0.857097
 H         1.324603         1.091166         0.983025
 H         2.034808        -1.149828        -1.166057
 H         2.351067        -1.511088         0.729957
 H         0.071191        -1.450301         2.172604
 H        -0.751087         0.211247         1.846226
