19
Iteration:  2803
 O        -2.879477        -0.979160         1.551150
 C        -1.794061        -1.339436         0.885005
 C        -1.797491        -2.534980         0.003996
 C        -1.757076        -1.134024        -0.661298
 O        -0.514383        -0.758845        -1.020309
 C         0.314910        -0.536464         0.122947
 C         1.396278         0.632984        -0.040159
 C         1.718857        -0.954823        -0.046641
 C        -0.420027        -0.841819         1.373544
 H        -3.296377        -1.729475         2.053240
 H        -0.839752        -2.853921        -0.408484
 H        -2.742817        -3.120065        -0.114558
 H        -2.602780        -0.605778        -1.032269
 H         1.432731         1.214186        -0.988117
 H         1.702216         1.099503         0.904032
 H         1.962087        -1.376937        -1.052382
 H         2.403317        -1.449319         0.743461
 H         0.252730        -1.483856         2.071221
 H        -0.719304         0.024217         1.983020
