19
Iteration:  3692charge 0 multiplicity 1
 O        -2.892066        -0.860150         1.721247
 C        -1.812772        -1.332118         0.846208
 C        -2.018022        -2.494006        -0.078507
 C        -1.698889        -1.187479        -0.661972
 O        -0.397217        -0.985521        -1.067767
 C         0.417982        -0.578695         0.018070
 C         1.233284         0.740331         0.036228
 C         1.837603        -0.702337        -0.001921
 C        -0.357119        -1.028448         1.316532
 H        -3.376259        -1.611506         2.028317
 H        -1.334425        -3.346746        -0.232475
 H        -3.067197        -2.767159        -0.250960
 H        -2.529153        -0.764841        -1.262764
 H         1.093518         1.186543        -0.948860
 H         1.105656         1.297568         1.037053
 H         2.389560        -0.941666        -0.855695
 H         2.436626        -1.140380         0.861091
 H         0.114010        -1.871877         1.806719
 H        -0.233400        -0.111550         1.969466
