19
Iteration:  1540
 O        -2.957901        -0.864108         1.573584
 C        -1.863067        -1.381544         0.845136
 C        -1.924071        -2.562770         0.007356
 C        -1.756476        -1.209703        -0.583530
 O        -0.460053        -0.844252        -1.029781
 C         0.421592        -0.587514         0.038001
 C         1.270286         0.644986         0.057601
 C         1.916897        -0.736439        -0.180187
 C        -0.372396        -0.979006         1.371651
 H        -3.003665        -1.201061         2.497681
 H        -1.147219        -3.297807         0.047824
 H        -2.985779        -2.893819        -0.164827
 H        -2.573081        -0.838621        -1.100225
 H         1.378825         1.386316        -0.718886
 H         1.340936         1.325335         0.918658
 H         2.325342        -0.934295        -1.142681
 H         2.619966        -1.120790         0.611463
 H         0.060738        -1.819312         1.886267
 H        -0.455439        -0.125522         2.087722
