19
Iteration:  2946
 O        -2.960171        -1.148000         1.599203
 C        -1.797956        -1.287474         0.847307
 C        -1.571684        -2.577674         0.031983
 C        -1.644877        -1.205227        -0.637701
 O        -0.510314        -0.455869        -1.040157
 C         0.313201        -0.378867         0.148349
 C         1.493728         0.409700        -0.034399
 C         1.549756        -1.172795        -0.136601
 C        -0.633435        -0.631333         1.379140
 H        -2.844181        -1.659188         2.454174
 H        -0.663249        -3.121188        -0.014385
 H        -2.448185        -2.986968        -0.333036
 H        -2.608053        -0.954058        -1.229397
 H         1.643073         0.888702        -0.943938
 H         1.967005         0.914295         0.838221
 H         1.934547        -1.378846        -1.089598
 H         1.966098        -1.844981         0.605173
 H         0.044864        -1.040950         2.201046
 H        -0.787707         0.382502         1.691697
