19
Iteration:  3239charge 0 multiplicity 1
 O        -2.907672        -0.758084         1.450442
 C        -1.741375        -1.378835         0.946350
 C        -1.957843        -2.640610         0.011643
 C        -1.705655        -1.250797        -0.629051
 O        -0.452901        -0.802081        -1.057277
 C         0.369449        -0.534041         0.117517
 C         1.245323         0.640954         0.101863
 C         1.861052        -0.697869        -0.180176
 C        -0.395655        -1.084580         1.360838
 H        -3.205230        -1.210127         2.288919
 H        -1.111555        -3.376725         0.120885
 H        -3.014103        -2.978173         0.015706
 H        -2.480514        -0.511376        -0.926942
 H         1.044945         1.448863        -0.657629
 H         1.478520         1.087925         1.098406
 H         2.048694        -1.053742        -1.172848
 H         2.375277        -1.369576         0.611775
 H         0.099005        -1.989576         1.738214
 H        -0.377092        -0.325180         2.136678
