19
Iteration:  1755charge 0 multiplicity 1
 O        -2.936606        -1.217836         1.504621
 C        -1.693836        -1.246448         0.864550
 C        -1.401066        -2.567509         0.072407
 C        -1.739720        -1.218673        -0.607795
 O        -0.639501        -0.366599        -1.079798
 C         0.281609        -0.358513         0.129487
 C         1.579041         0.300631        -0.010070
 C         1.465591        -1.211748        -0.136933
 C        -0.606048        -0.521633         1.404722
 H        -2.769370        -1.651898         2.341199
 H        -0.322856        -3.042721         0.081169
 H        -2.414050        -3.148226         0.050510
 H        -2.709588        -1.248878        -1.115809
 H         1.588807         1.024253        -0.899702
 H         2.135602         0.675377         0.844881
 H         1.491171        -1.870403        -1.072704
 H         1.859766        -1.822186         0.689140
 H        -0.105091        -0.799528         2.381222
 H        -0.980847         0.539359         1.601064
