19
Iteration:  3493
 O        -2.773169        -0.700159         1.576354
 C        -1.714747        -1.433674         0.822364
 C        -2.199041        -2.429364        -0.167612
 C        -1.687707        -1.062261        -0.604381
 O        -0.269139        -1.275319        -0.979023
 C         0.397529        -0.687228         0.136886
 C         0.957577         0.754860         0.083344
 C         1.818029        -0.455175        -0.082878
 C        -0.289706        -1.222767         1.319572
 H        -2.753213        -1.180344         2.456244
 H        -1.717822        -3.382667        -0.151981
 H        -3.232223        -2.607896        -0.007070
 H        -2.217457        -0.182956        -1.017214
 H         0.896773         1.347832        -0.769702
 H         0.922569         1.309623         1.000392
 H         2.026929        -0.625916        -1.069897
 H         2.695082        -0.582528         0.598842
 H         0.198657        -2.154933         1.511876
 H        -0.325942        -0.513084         2.102549
