19
Iteration:  1797
 O        -3.028717        -1.261814         1.598088
 C        -1.800919        -1.305033         0.891273
 C        -1.448725        -2.525810         0.008184
 C        -1.750925        -1.153398        -0.587956
 O        -0.659770        -0.344183        -1.052454
 C         0.301547        -0.423976         0.108142
 C         1.702071         0.265395        -0.199096
 C         1.620993        -1.143864         0.030327
 C        -0.598855        -0.469312         1.371222
 H        -2.984013        -1.994093         2.255107
 H        -0.341623        -2.794639        -0.236397
 H        -2.085257        -3.441287        -0.260855
 H        -2.679478        -0.930807        -1.077156
 H         1.508384         0.680245        -1.258375
 H         2.127238         0.877272         0.580351
 H         1.749648        -1.936457        -0.787974
 H         1.810004        -1.699334         0.948213
 H        -0.158203        -1.054088         2.259149
 H        -1.052985         0.481573         1.684585
