19
Iteration:  4447
 O        -3.041248        -0.968489         1.520090
 C        -1.811846        -1.255739         0.888793
 C        -1.446498        -2.562072         0.063138
 C        -1.769595        -1.263986        -0.582151
 O        -0.591282        -0.464140        -1.099594
 C         0.289423        -0.504156         0.077063
 C         1.425610         0.369493         0.037434
 C         1.835853        -1.119808        -0.174040
 C        -0.597697        -0.723707         1.438391
 H        -3.045748        -1.426357         2.396105
 H        -0.374880        -2.827145         0.172598
 H        -2.084234        -3.430194        -0.114368
 H        -2.652165        -1.123612        -1.271631
 H         1.606504         1.248205        -0.648331
 H         1.619318         0.828709         0.895218
 H         1.871013        -1.352077        -1.316945
 H         2.402625        -1.824133         0.530730
 H        -0.192779        -1.347980         2.190011
 H        -0.953291         0.313263         1.751878
