19
Iteration:  1464charge 0 multiplicity 1
 O        -2.803012        -0.838744         1.658708
 C        -1.776621        -1.343215         0.851719
 C        -1.963946        -2.516020        -0.042688
 C        -1.777987        -1.142764        -0.630695
 O        -0.492454        -0.920489        -1.096326
 C         0.362079        -0.666700         0.117243
 C         1.216236         0.646802        -0.061846
 C         1.934123        -0.639171        -0.017008
 C        -0.396269        -1.060613         1.379100
 H        -3.501604        -1.452577         1.857824
 H        -1.064305        -3.091348        -0.129230
 H        -2.946994        -3.022069        -0.175174
 H        -2.438235        -0.588341        -1.233137
 H         1.013390         1.184887        -1.000641
 H         1.373226         1.285043         0.841516
 H         2.492450        -0.972880        -0.917237
 H         2.348944        -0.841300         0.981520
 H        -0.041293        -2.113472         1.836257
 H        -0.485460        -0.176099         2.092153
