19
Iteration:   646
 O        -2.996542        -1.064512         1.628808
 C        -1.798894        -1.268505         0.848959
 C        -1.555789        -2.547774         0.034803
 C        -1.729680        -1.241851        -0.662420
 O        -0.588346        -0.569226        -0.975222
 C         0.289822        -0.569431         0.101447
 C         1.361826         0.431463         0.016044
 C         1.808035        -0.981604        -0.231891
 C        -0.528287        -0.674665         1.352506
 H        -2.675821        -0.994792         2.567627
 H        -0.553203        -3.042223        -0.173698
 H        -2.281755        -3.383445        -0.114366
 H        -2.531525        -1.015776        -1.364611
 H         1.387762         1.095066        -0.754972
 H         1.514404         0.659286         1.012595
 H         1.796770        -1.260863        -1.227779
 H         2.450359        -1.426245         0.611455
 H        -0.049564        -1.248770         2.079888
 H        -0.685274         0.394825         1.695073
