19
Iteration:  1241
 O        -2.778329        -0.590925         1.598327
 C        -1.748128        -1.420986         0.854587
 C        -2.262232        -2.577160        -0.070638
 C        -1.737057        -1.291937        -0.661356
 O        -0.301225        -1.102637        -1.044962
 C         0.386656        -0.622048         0.169820
 C         0.993009         0.744110         0.100915
 C         1.890037        -0.393367        -0.099656
 C        -0.166786        -1.284212         1.319063
 H        -3.168308        -1.277668         2.195473
 H        -1.785200        -3.534424        -0.095986
 H        -3.360814        -2.506403        -0.013150
 H        -2.216740        -0.490516        -1.338360
 H         0.722282         1.324845        -0.814460
 H         1.234617         1.389870         0.951818
 H         2.047951        -0.764476        -1.133026
 H         2.668822        -0.401716         0.538951
 H         0.111143        -2.318115         1.588023
 H        -0.045779        -0.775349         2.216201
