19
Iteration:   920charge 0 multiplicity 1
 O        -2.820361        -0.835962         1.730454
 C        -1.761656        -1.312075         0.787292
 C        -1.909166        -2.577466        -0.096834
 C        -1.766116        -1.109340        -0.620099
 O        -0.434105        -0.923939        -1.109920
 C         0.250980        -0.549959         0.094099
 C         1.214233         0.679369        -0.101970
 C         1.878324        -0.663980         0.024930
 C        -0.411869        -1.136311         1.371930
 H        -2.803844        -1.611079         2.385509
 H        -0.897599        -2.993681        -0.358900
 H        -2.879152        -3.081621         0.010608
 H        -2.633400        -0.665637        -1.211415
 H         0.969495         1.136340        -1.012812
 H         1.301115         1.273439         0.799157
 H         2.281888        -1.334285        -0.748957
 H         2.391645        -0.777360         1.109483
 H         0.144551        -1.973597         1.725427
 H        -0.549386        -0.368783         2.158943
