19
Iteration:  4530charge 0 multiplicity 1
 O        -3.021854        -0.919641         1.706862
 C        -1.803212        -1.375343         0.865564
 C        -1.815748        -2.557073        -0.134094
 C        -1.792599        -1.063842        -0.614820
 O        -0.437190        -0.882141        -1.060524
 C         0.344000        -0.587586         0.084322
 C         1.368736         0.573285        -0.056925
 C         1.902495        -0.849781        -0.008276
 C        -0.477976        -0.802108         1.345808
 H        -3.038175        -1.532542         2.483809
 H        -0.857609        -3.066347        -0.226154
 H        -2.716085        -3.101946        -0.347817
 H        -2.621598        -0.493978        -1.242045
 H         1.568066         1.011214        -1.136273
 H         1.385538         1.241489         0.824453
 H         2.339644        -1.121663        -0.968313
 H         2.418965        -1.301791         0.789532
 H         0.074499        -1.549037         2.066390
 H        -0.732786         0.096006         1.938956
