19
Iteration:  3416
 O        -2.748436        -0.578465         1.580839
 C        -1.765622        -1.368780         0.856559
 C        -2.100686        -2.531041        -0.028764
 C        -1.740601        -1.293996        -0.707690
 O        -0.416302        -1.068481        -1.045268
 C         0.345912        -0.595734         0.071595
 C         1.074654         0.747414         0.209956
 C         1.910986        -0.546038        -0.038400
 C        -0.256675        -1.259776         1.246508
 H        -3.481425        -1.239137         1.709584
 H        -1.267376        -3.210887         0.090884
 H        -3.017438        -3.118042         0.069601
 H        -2.413921        -0.687698        -1.237542
 H         0.796863         1.514179        -0.522861
 H         0.932133         1.173199         1.165871
 H         1.953890        -0.736840        -1.128377
 H         2.584600        -0.883571         0.714162
 H         0.192086        -2.222673         1.457427
 H        -0.059471        -0.654430         2.094557
