19
Iteration:  3516
 O        -2.775546        -0.717233         1.582411
 C        -1.776813        -1.332607         0.863194
 C        -2.274418        -2.445000        -0.123711
 C        -1.657176        -1.156537        -0.607123
 O        -0.313050        -1.118595        -1.054749
 C         0.513501        -0.739789         0.182105
 C         0.930262         0.695656         0.035647
 C         1.957936        -0.415875        -0.156577
 C        -0.273355        -1.282651         1.447581
 H        -3.100265        -1.420456         2.124512
 H        -1.806773        -3.449391        -0.161546
 H        -3.311313        -2.522496        -0.354438
 H        -2.261329        -0.450499        -1.282972
 H         0.505944         1.247186        -0.769960
 H         0.842383         1.242117         0.956209
 H         2.435840        -0.555872        -1.070059
 H         2.501006        -0.544312         0.777623
 H         0.115527        -2.202303         1.824410
 H        -0.337386        -0.451099         2.121488
