19
Iteration:  1864charge 0 multiplicity 1
 O        -2.964902        -1.042777         1.630111
 C        -1.846361        -1.361371         0.834174
 C        -1.680551        -2.590757         0.034582
 C        -1.827134        -1.242092        -0.625250
 O        -0.689999        -0.491596        -1.013802
 C         0.358996        -0.485170         0.020936
 C         1.632621         0.466612         0.028756
 C         1.889983        -0.999192        -0.070115
 C        -0.567708        -0.705803         1.288545
 H        -3.081188        -1.681879         2.360845
 H        -0.642397        -3.125114        -0.056120
 H        -2.517265        -3.345101        -0.133626
 H        -2.644381        -1.053175        -1.399920
 H         1.902106         1.095324        -0.809601
 H         1.589502         1.048010         0.997971
 H         2.113205        -1.421032        -1.083038
 H         2.191185        -1.623145         0.795443
 H         0.041243        -1.245554         2.062169
 H        -0.812779         0.330840         1.567010
