19
Iteration:  4698
 O        -2.758267        -0.832536         1.606654
 C        -1.692525        -1.431765         0.867328
 C        -2.048818        -2.491636        -0.060010
 C        -1.674400        -1.135694        -0.693539
 O        -0.407356        -0.966050        -1.065467
 C         0.322606        -0.516740         0.175281
 C         1.205386         0.658075        -0.066102
 C         1.768490        -0.759924         0.020885
 C        -0.414163        -0.979454         1.403996
 H        -3.277671        -1.655302         1.795758
 H        -1.312491        -3.312330        -0.245955
 H        -3.150774        -2.626049        -0.167455
 H        -2.543757        -0.477962        -1.030700
 H         1.146574         0.969067        -1.135964
 H         1.265441         1.261546         0.771895
 H         2.230235        -1.268503        -0.927468
 H         2.339363        -1.146230         0.903957
 H         0.257018        -1.616823         1.917886
 H        -0.703377        -0.060020         1.988527
