19
Iteration:  4387
 O        -3.006660        -1.248039         1.584230
 C        -1.745493        -1.295194         0.867247
 C        -1.417524        -2.535013        -0.016569
 C        -1.766980        -1.115665        -0.670680
 O        -0.597309        -0.402570        -1.038054
 C         0.264588        -0.379707         0.113918
 C         1.641393         0.275143        -0.152943
 C         1.531911        -1.200091         0.094432
 C        -0.591137        -0.475091         1.362537
 H        -3.125876        -2.086259         2.111015
 H        -0.416467        -2.975515        -0.033316
 H        -2.202521        -3.283843        -0.021047
 H        -2.605534        -0.861395        -1.221092
 H         1.510728         0.519165        -1.182075
 H         2.340525         0.817946         0.577111
 H         1.760913        -1.783493        -0.747287
 H         1.807404        -1.637089         1.015757
 H        -0.139806        -0.653706         2.367873
 H        -1.085176         0.478707         1.518918
