19
Iteration:  1964charge 0 multiplicity 1
 O        -2.891926        -1.028659         1.648972
 C        -1.775015        -1.307075         0.825352
 C        -1.875236        -2.544629         0.025649
 C        -1.808597        -1.149598        -0.686544
 O        -0.487448        -0.694607        -1.092593
 C         0.373370        -0.521133         0.067000
 C         1.344964         0.579190         0.039805
 C         1.841513        -0.911173        -0.050882
 C        -0.411242        -0.824404         1.326718
 H        -3.103384        -1.855949         2.165287
 H        -1.084512        -3.215079        -0.020578
 H        -2.860151        -2.931845         0.157096
 H        -2.580949        -0.786228        -1.305677
 H         1.343727         1.111585        -0.903007
 H         1.448929         1.051424         0.929262
 H         2.153752        -1.458759        -0.892360
 H         2.223506        -1.316473         0.839261
 H         0.018227        -1.590694         1.929003
 H        -0.575070         0.122224         1.931484
