19
Iteration:   423
 O        -2.954833        -1.028742         1.617209
 C        -1.745040        -1.331190         0.929601
 C        -1.744092        -2.700071         0.109284
 C        -1.787066        -1.187851        -0.558581
 O        -0.546628        -0.793071        -1.093550
 C         0.340171        -0.548358         0.058418
 C         1.387393         0.566475         0.001204
 C         1.813857        -0.864215        -0.184033
 C        -0.448778        -0.596744         1.305072
 H        -3.439710        -1.804730         1.344092
 H        -0.855565        -3.169653         0.060498
 H        -2.653230        -3.199241         0.151873
 H        -2.641781        -0.619925        -0.974290
 H         1.264113         1.339264        -0.803732
 H         1.785990         1.043145         1.005401
 H         2.014191        -1.174361        -1.160177
 H         2.437441        -1.343099         0.618753
 H         0.246587        -1.027357         2.095871
 H        -0.745651         0.449428         1.653985
