19
Iteration:  3132
 C         0.275364         0.239698         0.186493
 C         1.464437        -0.612945        -0.247506
 C         1.646079        -1.245934        -1.562822
 C         2.525320        -0.085426        -1.153260
 O         3.885449        -0.561685        -0.877485
 C         4.221995        -0.439178         0.397618
 C         4.356407        -1.594773         1.291711
 C         3.178885        -0.766484         1.491202
 O         2.032222        -1.328203         0.969711
 H         0.206889         0.222585         1.288683
 H         0.353454         1.265877        -0.284133
 H        -0.739242        -0.134383        -0.059200
 H         2.384464        -2.085789        -1.653830
 H         0.611823        -1.192114        -2.167827
 H         2.524915         0.878177        -1.760225
 H         4.993951         0.253144         0.550922
 H         4.305915        -2.620100         0.994022
 H         5.090497        -1.637360         2.101490
 H         3.002069        -0.076777         2.392632
