19
Iteration:  4957
 C         0.213075         0.247839         0.171628
 C         1.528410        -0.573361        -0.185000
 C         1.605813        -1.228467        -1.507644
 C         2.579566        -0.105585        -1.190814
 O         3.924638        -0.588551        -0.865686
 C         4.362234        -0.496085         0.487773
 C         4.232724        -1.662650         1.280700
 C         3.140480        -0.718148         1.515861
 O         2.026456        -1.267189         0.823713
 H        -0.018827         1.015995        -0.536662
 H        -0.533419        -0.503569         0.242810
 H         0.097814         0.733797         1.123045
 H         2.069210        -2.145515        -1.555573
 H         0.758158        -0.845240        -2.191003
 H         2.564243         0.871597        -1.580992
 H         5.253733         0.284456         0.641665
 H         3.967355        -2.596883         0.828709
 H         5.002262        -1.888889         2.021019
 H         3.117355        -0.220187         2.525073
