19
Iteration:  3953
 C         0.355880         0.443762         0.222781
 C         1.412351        -0.541892        -0.182747
 C         1.674175        -1.353711        -1.499689
 C         2.577806        -0.211351        -1.273975
 O         3.911698        -0.414015        -0.822561
 C         4.176929        -0.338378         0.527929
 C         4.416342        -1.688178         1.244134
 C         3.091986        -0.926020         1.426990
 O         1.930062        -1.398910         0.860290
 H        -0.118948         1.025460        -0.574670
 H        -0.326440        -0.151113         0.978463
 H         0.957452         1.186740         0.774423
 H         2.172145        -2.330495        -1.205806
 H         1.123556        -1.433609        -2.529507
 H         2.405085         0.811923        -1.747135
 H         4.780453         0.614369         0.795744
 H         4.460092        -2.462619         0.556197
 H         5.088887        -1.778675         2.088743
 H         2.956734        -0.510953         2.392500
