19
Iteration:  3623charge 0 multiplicity 1
 C         0.322993         0.367844         0.095820
 C         1.461067        -0.628352        -0.229451
 C         1.519760        -1.179572        -1.630366
 C         2.510311        -0.140900        -1.191813
 O         3.874710        -0.507944        -0.828031
 C         4.201681        -0.425806         0.491535
 C         4.476238        -1.646866         1.347110
 C         3.205450        -0.902332         1.581050
 O         2.019718        -1.403782         0.908102
 H         0.231627         1.064154        -0.666200
 H        -0.604001        -0.253349         0.231922
 H         0.548082         0.982065         0.947931
 H         1.861584        -2.127106        -2.031372
 H         0.764608        -0.834067        -2.332881
 H         2.455066         0.876630        -1.570563
 H         4.780349         0.510346         0.932248
 H         4.350821        -2.632199         0.762551
 H         5.290998        -1.535155         2.109345
 H         3.078824        -0.224392         2.492189
