19
Iteration:  2102
 C         0.114931         0.123807         0.039274
 C         1.452663        -0.476654        -0.191640
 C         1.717485        -1.175349        -1.461568
 C         2.626805        -0.080999        -1.198724
 O         3.880391        -0.389125        -0.885043
 C         4.282369        -0.548642         0.469691
 C         4.364933        -1.775683         1.282299
 C         3.224482        -0.880500         1.479174
 O         1.967278        -1.172524         0.977956
 H         0.201348         0.639672         0.932342
 H        -0.171638         0.735041        -0.758252
 H        -0.681639        -0.644121         0.301120
 H         2.301070        -2.105629        -1.503255
 H         0.894188        -1.304505        -2.171793
 H         2.567447         0.867744        -1.719221
 H         4.974787         0.123510         0.645622
 H         4.326791        -2.759224         0.873930
 H         5.065241        -1.750798         2.082043
 H         2.995781        -0.456891         2.529517
