19
Iteration:  1160
 C         0.447467         0.332639         0.341323
 C         1.516756        -0.635087        -0.174227
 C         1.551694        -1.237402        -1.613263
 C         2.580910        -0.185099        -1.190319
 O         3.965380        -0.605603        -0.903824
 C         4.141908        -0.241491         0.507388
 C         4.357791        -1.476998         1.344723
 C         2.979844        -0.815072         1.458364
 O         2.030794        -1.531474         0.777932
 H         0.840930         1.008504         1.066232
 H         0.187312         0.885606        -0.516883
 H        -0.537844        -0.133663         0.576009
 H         1.892132        -2.238239        -1.495609
 H         0.856160        -0.909830        -2.354885
 H         2.407936         0.799492        -1.679159
 H         4.653234         0.617414         0.680047
 H         4.518063        -2.308496         0.673404
 H         4.998227        -1.493646         2.215589
 H         2.770179        -0.367862         2.476124
