19
Iteration:  1734charge 0 multiplicity 1
 C         0.225023         0.270031         0.150883
 C         1.537606        -0.565251        -0.181462
 C         1.632546        -1.190377        -1.576398
 C         2.554103        -0.115650        -1.114562
 O         3.872096        -0.504542        -0.907406
 C         4.176737        -0.420260         0.436697
 C         4.412096        -1.668832         1.415673
 C         3.156260        -0.827658         1.412111
 O         2.048690        -1.402132         0.866170
 H         0.393211         1.057140         0.984735
 H         0.050997         0.760486        -0.844715
 H        -0.494353        -0.302710         0.580628
 H         2.234555        -2.092117        -1.703527
 H         0.786815        -1.026619        -2.313277
 H         2.487000         0.932794        -1.366794
 H         4.780699         0.486321         0.774804
 H         4.216806        -2.714185         1.117566
 H         4.941672        -1.535656         2.347006
 H         2.979441        -0.271381         2.282235
