19
Iteration:  1632
 C         0.469883         0.336979         0.255333
 C         1.423503        -0.700218        -0.247507
 C         1.546799        -1.185048        -1.624271
 C         2.596258        -0.153788        -1.186995
 O         3.886126        -0.529816        -0.849710
 C         4.204922        -0.285667         0.506302
 C         4.426246        -1.535206         1.398910
 C         3.094358        -0.860042         1.450403
 O         1.968094        -1.509136         0.783376
 H         0.932560         0.816564         1.128911
 H         0.204313         1.077321        -0.423622
 H        -0.471014        -0.237042         0.581002
 H         1.854271        -2.248915        -1.753761
 H         0.797148        -0.736509        -2.307986
 H         2.450761         0.796867        -1.722896
 H         4.710013         0.526476         0.818401
 H         4.354572        -2.582304         1.062466
 H         4.962542        -1.392946         2.365034
 H         2.832802        -0.234481         2.399484
