19
Iteration:  3965
 C         0.400520         0.422132         0.227951
 C         1.489678        -0.541744        -0.285557
 C         1.635851        -1.379878        -1.521786
 C         2.548549        -0.177144        -1.119979
 O         3.908322        -0.445819        -0.820571
 C         4.183905        -0.363028         0.550116
 C         4.472112        -1.647186         1.223752
 C         3.138855        -0.914969         1.386619
 O         1.857015        -1.387626         0.866644
 H        -0.109487         0.931565        -0.628289
 H        -0.486418        -0.134353         0.684532
 H         0.696552         1.133503         1.005379
 H         1.907331        -2.456549        -1.404429
 H         0.856249        -1.062399        -2.394157
 H         2.474753         0.662072        -1.880740
 H         4.718788         0.549536         0.931719
 H         4.618270        -2.580514         0.676533
 H         5.056430        -1.517345         2.151898
 H         3.025399        -0.395009         2.305405
