19
Iteration:  4160
 C         0.286831         0.388725         0.185752
 C         1.422135        -0.532870        -0.238646
 C         1.580360        -1.279121        -1.549606
 C         2.567878        -0.164177        -1.154500
 O         3.878406        -0.497963        -0.836986
 C         4.250939        -0.355198         0.602279
 C         4.432074        -1.653482         1.298109
 C         3.166522        -0.879382         1.464943
 O         2.003782        -1.403200         0.808773
 H         0.049702         1.088252        -0.652818
 H        -0.694993        -0.276913         0.436377
 H         0.410910         1.002439         1.117072
 H         1.995910        -2.267720        -1.393122
 H         1.082969        -1.005201        -2.483519
 H         2.531469         0.679913        -1.905518
 H         4.982297         0.465067         0.634618
 H         4.296246        -2.552330         0.688346
 H         5.208560        -1.913237         1.963329
 H         2.979092        -0.520022         2.467984
