19
Iteration:  1568charge 0 multiplicity 1
 C         0.175263         0.193072         0.026841
 C         1.461074        -0.610976        -0.173164
 C         1.616429        -1.167716        -1.520722
 C         2.514086        -0.063917        -1.066213
 O         3.949952        -0.498745        -0.935666
 C         4.293291        -0.477282         0.522763
 C         4.434572        -1.721272         1.297303
 C         3.231457        -0.899982         1.480000
 O         1.959895        -1.208058         0.954779
 H         0.089629         1.108920         0.798061
 H        -0.130099         0.466342        -0.920908
 H        -0.549302        -0.557750         0.487484
 H         2.204235        -2.119327        -1.662395
 H         0.920121        -0.887033        -2.377169
 H         2.498185         0.864411        -1.611085
 H         4.749947         0.474446         0.760107
 H         4.190214        -2.583280         0.610300
 H         5.028540        -1.791302         2.235979
 H         3.170079        -0.112374         2.295953
