19
Iteration:  2134
 C         0.220761         0.188088         0.078927
 C         1.463713        -0.607776        -0.148490
 C         1.636899        -1.246220        -1.527084
 C         2.597026        -0.150518        -1.137108
 O         3.932662        -0.379522        -0.856833
 C         4.330639        -0.454671         0.494846
 C         4.278280        -1.733609         1.252813
 C         3.169863        -0.724187         1.474892
 O         1.992403        -1.306882         0.911296
 H         0.330527         0.591309         1.067144
 H         0.150223         1.032495        -0.538176
 H        -0.679989        -0.539835        -0.011738
 H         2.167292        -2.216155        -1.501027
 H         0.864985        -0.987803        -2.258615
 H         2.535209         0.846044        -1.566431
 H         5.056606         0.309024         0.701972
 H         3.920785        -2.489643         0.597959
 H         4.961238        -2.058745         2.006898
 H         2.968576        -0.175977         2.486824
