19
Iteration:  1730
 C         0.290099         0.287685         0.166073
 C         1.509526        -0.579750        -0.159922
 C         1.634069        -1.172234        -1.573152
 C         2.608742        -0.109897        -1.121758
 O         3.866582        -0.528084        -0.913701
 C         4.168238        -0.385832         0.447103
 C         4.402991        -1.655489         1.410742
 C         3.128499        -0.839715         1.384496
 O         2.028171        -1.411083         0.859170
 H         0.370620         1.022072         0.920521
 H         0.064411         0.675501        -0.775481
 H        -0.510183        -0.482772         0.613150
 H         2.231811        -2.108923        -1.704609
 H         0.704810        -1.025344        -2.220175
 H         2.413432         0.954869        -1.411947
 H         4.746706         0.405836         0.715278
 H         4.404637        -2.729875         1.066019
 H         4.947243        -1.450430         2.381200
 H         2.847070        -0.198990         2.358962
