19
Iteration:  4778
 C         0.221191         0.290479         0.174569
 C         1.515817        -0.504834        -0.178655
 C         1.532019        -1.106463        -1.640741
 C         2.566174        -0.077714        -1.168211
 O         3.934747        -0.718871        -0.903384
 C         4.195299        -0.505179         0.452658
 C         4.518901        -1.540679         1.415555
 C         3.127665        -0.864686         1.522921
 O         1.961203        -1.371463         0.884694
 H         0.086663         0.809638        -0.758316
 H        -0.457774        -0.504553         0.232274
 H         0.558290         0.920253         1.046925
 H         1.917589        -2.084068        -1.720856
 H         0.688673        -0.908569        -2.387975
 H         2.693320         1.030268        -1.442589
 H         4.683997         0.598016         0.462848
 H         4.564094        -2.566719         0.943980
 H         5.236831        -1.356188         2.260253
 H         3.005595        -0.218219         2.445333
