19
Iteration:  3892charge 0 multiplicity 1
 C         0.166154         0.342942         0.125824
 C         1.508497        -0.568970        -0.216922
 C         1.598859        -1.234461        -1.569013
 C         2.487833        -0.097339        -1.140498
 O         3.965900        -0.494239        -0.910986
 C         4.265413        -0.454416         0.495295
 C         4.438621        -1.684377         1.359465
 C         3.175549        -0.880527         1.468011
 O         1.992693        -1.363525         0.932217
 H        -0.350920         0.820338        -0.794037
 H        -0.679691        -0.162116         0.629842
 H         0.556353         0.976523         0.979520
 H         2.082758        -2.125982        -1.834892
 H         0.873740        -0.993578        -2.392836
 H         2.529937         0.908660        -1.495637
 H         4.862121         0.351347         0.652081
 H         4.369934        -2.670924         0.757664
 H         5.252171        -1.561277         2.209841
 H         2.917175        -0.320435         2.403198
