19
Iteration:  2160
 C         0.369825         0.309706         0.137036
 C         1.496659        -0.619876        -0.176459
 C         1.637363        -1.265803        -1.632265
 C         2.547235        -0.151501        -1.167506
 O         3.882683        -0.457260        -0.877170
 C         4.177164        -0.360268         0.532358
 C         4.454239        -1.642301         1.308029
 C         3.097645        -0.897725         1.493316
 O         1.932389        -1.369014         0.930497
 H         0.657190         0.856125         1.045646
 H         0.208948         1.150532        -0.610258
 H        -0.466001        -0.309019         0.173563
 H         2.210127        -2.173804        -1.581511
 H         0.854219        -1.032351        -2.352971
 H         2.522737         0.859181        -1.676215
 H         4.650668         0.551754         0.827864
 H         4.228836        -2.540991         0.635268
 H         5.332957        -1.692937         2.067946
 H         2.833303        -0.342577         2.405441
