19
Iteration:  3845
 C         0.255345         0.258284         0.223148
 C         1.477493        -0.582582        -0.230612
 C         1.534070        -1.088751        -1.658731
 C         2.610273        -0.139316        -1.193560
 O         3.894908        -0.708444        -0.847609
 C         4.224850        -0.349637         0.525284
 C         4.423951        -1.610642         1.325465
 C         3.187447        -0.795895         1.518933
 O         2.013704        -1.362692         0.888943
 H         0.048710         1.036499        -0.473936
 H        -0.585644        -0.341638         0.034172
 H         0.281972         0.404572         1.293504
 H         1.845145        -2.158539        -2.147301
 H         0.587503        -0.835016        -2.235423
 H         2.837108         0.957473        -1.497641
 H         4.798722         0.610174         0.591522
 H         4.387353        -2.544590         0.832290
 H         5.083561        -1.501871         2.145403
 H         3.058559        -0.218314         2.398827
