19
Iteration:   502charge 0 multiplicity 1
 C         0.272943         0.240015         0.169625
 C         1.489483        -0.535305        -0.237024
 C         1.631066        -1.255913        -1.531464
 C         2.597136        -0.187586        -1.150627
 O         3.881252        -0.578292        -0.880847
 C         4.185084        -0.323909         0.532175
 C         4.463644        -1.645427         1.283039
 C         3.153154        -0.709109         1.464632
 O         1.946609        -1.388849         0.908567
 H         0.400558         0.835454         1.062292
 H        -0.082191         1.041873        -0.666554
 H        -0.640508        -0.366731         0.359660
 H         1.984130        -2.302341        -1.662223
 H         0.889844        -1.108603        -2.322207
 H         2.582074         0.863056        -1.536412
 H         4.773008         0.505894         0.705544
 H         4.202709        -2.471400         0.593068
 H         5.387275        -1.686758         1.891345
 H         3.185549        -0.257269         2.489566
