19
Iteration:  2201charge 0 multiplicity 1
 C         0.445090         0.415627         0.212172
 C         1.477167        -0.589406        -0.195760
 C         1.486373        -1.187346        -1.603544
 C         2.595397        -0.235486        -1.149180
 O         3.883894        -0.637948        -0.753440
 C         4.152947        -0.263304         0.567010
 C         4.473987        -1.442075         1.374993
 C         3.099564        -0.931019         1.446538
 O         2.001573        -1.547989         0.656459
 H         0.880902         1.272751         0.661946
 H        -0.039145         0.797012        -0.707042
 H        -0.352536        -0.010629         0.934446
 H         1.802531        -2.219147        -1.793901
 H         0.796367        -0.787346        -2.360952
 H         2.357337         0.780593        -1.557035
 H         4.441629         0.738741         0.660382
 H         4.844549        -2.243727         0.712962
 H         4.962443        -1.516938         2.388390
 H         2.812591        -0.480315         2.502065
