19
Iteration:  4505
 C         0.430520         0.387422         0.079958
 C         1.496771        -0.703722        -0.155070
 C         1.511920        -1.217616        -1.551506
 C         2.581662        -0.173159        -1.212750
 O         3.843962        -0.523431        -0.844263
 C         4.122396        -0.319765         0.519002
 C         4.479933        -1.571044         1.253979
 C         3.132573        -0.920733         1.529423
 O         1.981608        -1.456833         0.894613
 H         0.366039         0.941310        -0.829384
 H        -0.469689         0.083393         0.564991
 H         1.041129         1.099597         0.811444
 H         1.877826        -2.169316        -1.717536
 H         0.790551        -0.595803        -2.070037
 H         2.361307         0.904259        -1.478045
 H         4.621854         0.672580         0.865685
 H         4.445727        -2.436011         0.604621
 H         5.066869        -1.551056         2.124541
 H         3.054942        -0.479368         2.480769
