19
Iteration:  2457charge 0 multiplicity 1
 C         0.313678         0.327315         0.131344
 C         1.461225        -0.605117        -0.194039
 C         1.566878        -1.127996        -1.664665
 C         2.553927        -0.210905        -1.133520
 O         3.815121        -0.697998        -0.855775
 C         4.243656        -0.328263         0.554264
 C         4.554890        -1.475969         1.353333
 C         3.167583        -0.878766         1.472149
 O         1.952118        -1.434864         0.864374
 H         0.602904         1.058260         0.955450
 H         0.095611         1.003505        -0.645435
 H        -0.444186        -0.345413         0.451439
 H         1.868680        -2.198989        -1.808977
 H         0.832256        -0.684180        -2.400724
 H         2.463016         0.864500        -1.301976
 H         4.673708         0.637608         0.644166
 H         4.690566        -2.467518         0.909346
 H         5.135338        -1.376650         2.255083
 H         2.900742        -0.207897         2.296142
