19
Iteration:   593
 C         0.431576         0.317139         0.309096
 C         1.503404        -0.598058        -0.233501
 C         1.532662        -1.170167        -1.575949
 C         2.638341        -0.201877        -1.220537
 O         3.890250        -0.658959        -0.823275
 C         4.113758        -0.286677         0.497510
 C         4.479449        -1.466337         1.392185
 C         3.011364        -0.844178         1.427979
 O         2.001338        -1.515177         0.762162
 H         1.058382         0.937423         1.077001
 H         0.030897         0.881360        -0.437938
 H        -0.434093        -0.144689         0.965070
 H         1.902757        -2.184532        -1.641012
 H         0.865001        -0.879756        -2.393917
 H         2.531473         0.773392        -1.714148
 H         4.265053         0.818793         0.601217
 H         4.535606        -2.345708         0.760838
 H         5.243685        -1.183916         2.113984
 H         2.648739        -0.324375         2.201509
