19
Iteration:  4987
 C         0.350400         0.426111         0.095928
 C         1.487676        -0.592628        -0.180696
 C         1.617818        -1.267803        -1.560879
 C         2.541552        -0.134589        -1.170495
 O         3.903948        -0.502655        -0.884815
 C         4.181867        -0.427214         0.492722
 C         4.500233        -1.697246         1.311042
 C         3.134344        -0.928306         1.522431
 O         1.894125        -1.332245         0.913758
 H         0.035642         0.925269        -0.788449
 H        -0.590355        -0.124577         0.321633
 H         0.445834         1.161651         0.940928
 H         2.021875        -2.219175        -1.421746
 H         0.849328        -1.132667        -2.326726
 H         2.429038         0.856010        -1.594407
 H         4.800389         0.496986         0.780845
 H         4.371591        -2.632225         0.826866
 H         5.360647        -1.612060         1.931175
 H         3.176541        -0.328987         2.466487
