19
Iteration:  3436
 C         0.301972         0.355144         0.130611
 C         1.462136        -0.604298        -0.221549
 C         1.663068        -1.315972        -1.507107
 C         2.529835        -0.117590        -1.112380
 O         3.870030        -0.388981        -0.840543
 C         4.301291        -0.462193         0.473911
 C         4.396590        -1.704630         1.270028
 C         3.124843        -0.831859         1.469026
 O         1.947503        -1.355809         0.881070
 H         0.092845         1.014271        -0.639936
 H        -0.470226        -0.427169         0.288414
 H         0.552611         0.966941         0.944716
 H         2.050050        -2.357138        -1.403701
 H         0.955229        -1.274545        -2.394333
 H         2.366273         0.884018        -1.541282
 H         4.971685         0.497263         0.606272
 H         4.265490        -2.620287         0.753753
 H         5.201123        -1.726142         1.988865
 H         3.013529        -0.285677         2.439484
