19
Iteration:  1643
 C         0.466036         0.349407         0.308067
 C         1.512859        -0.608689        -0.201507
 C         1.577372        -1.178724        -1.592932
 C         2.577662        -0.195696        -1.199633
 O         3.907874        -0.500869        -0.925542
 C         4.126915        -0.347123         0.501755
 C         4.378004        -1.473866         1.455586
 C         3.005944        -0.917531         1.417943
 O         2.021759        -1.589337         0.799482
 H         0.919413         0.918371         1.133327
 H         0.424318         1.020409        -0.466813
 H        -0.591214         0.089797         0.657330
 H         1.807904        -2.243598        -1.865532
 H         0.946693        -0.697537        -2.374659
 H         2.595921         0.759448        -1.751373
 H         4.471782         0.575863         0.537014
 H         4.551962        -2.453190         0.960662
 H         5.068587        -1.242979         2.311493
 H         2.631836        -0.256297         2.319885
