19
Iteration:  4638charge 0 multiplicity 1
 C         0.406531         0.395871         0.128382
 C         1.495286        -0.608233        -0.219246
 C         1.526779        -1.248154        -1.514765
 C         2.561214        -0.200972        -1.187823
 O         3.908252        -0.517684        -0.862028
 C         4.146753        -0.337361         0.559816
 C         4.538923        -1.605544         1.233470
 C         3.104465        -0.956734         1.432815
 O         1.901931        -1.407863         0.969467
 H         0.044485         0.983241        -0.741904
 H        -0.571983         0.015561         0.451992
 H         0.853310         1.300672         0.712300
 H         1.977019        -2.258349        -1.651101
 H         0.857084        -0.984462        -2.239235
 H         2.622438         0.760627        -1.722972
 H         4.385178         0.781791         0.895126
 H         4.722168        -2.530688         0.605894
 H         5.221553        -1.639175         2.111743
 H         3.001450        -0.321605         2.391089
