19
Iteration:  1536
 C         0.310310         0.212182         0.068288
 C         1.503530        -0.599862        -0.198754
 C         1.681838        -1.313636        -1.563075
 C         2.517076        -0.049318        -1.177376
 O         3.868069        -0.417416        -0.822125
 C         4.238338        -0.465823         0.497572
 C         4.344022        -1.729766         1.153755
 C         3.178543        -0.816669         1.591155
 O         1.957222        -1.243495         0.998981
 H         0.454232         0.999219         0.933829
 H        -0.058118         0.721641        -0.766288
 H        -0.458391        -0.556454         0.243870
 H         2.381871        -2.177049        -1.467447
 H         0.894737        -1.173709        -2.343818
 H         2.348530         0.840457        -1.752601
 H         5.037214         0.316195         0.711598
 H         3.936611        -2.594810         0.558047
 H         5.196593        -1.888587         1.863363
 H         3.214610        -0.175719         2.458405
