19
Iteration:  2059
 C         0.260477         0.299279         0.010906
 C         1.500296        -0.643917        -0.142945
 C         1.716382        -1.245096        -1.552380
 C         2.541484        -0.094178        -1.135974
 O         3.894036        -0.520168        -0.824094
 C         4.242118        -0.321985         0.569153
 C         4.361930        -1.677681         1.112984
 C         3.183550        -0.898275         1.528511
 O         1.917993        -1.311144         1.017154
 H         0.479111         1.228863         0.411349
 H        -0.081944         0.438559        -1.001331
 H        -0.484488        -0.154883         0.717248
 H         2.162586        -2.222392        -1.707951
 H         0.956760        -0.872125        -2.274945
 H         2.352297         0.810761        -1.723479
 H         4.849445         0.446146         0.807540
 H         4.265198        -2.541847         0.453569
 H         5.273803        -1.836643         1.676202
 H         2.997426        -0.437700         2.600836
