19
Iteration:  3708charge 0 multiplicity 1
 C         0.325683         0.341498         0.087973
 C         1.478955        -0.640630        -0.195090
 C         1.568867        -1.208903        -1.611150
 C         2.516052        -0.083008        -1.134761
 O         3.850586        -0.513517        -0.861923
 C         4.227239        -0.374401         0.562876
 C         4.382324        -1.699738         1.348811
 C         3.223360        -0.800114         1.475889
 O         2.044747        -1.411256         0.841406
 H         0.066987         0.744664        -0.944316
 H        -0.567079        -0.165105         0.568470
 H         0.604951         1.055696         0.900256
 H         1.991358        -2.160703        -1.700336
 H         0.665162        -0.847741        -1.976304
 H         2.498985         0.943766        -1.374309
 H         5.015569         0.395547         0.739224
 H         4.153590        -2.629389         0.747889
 H         5.056097        -2.003651         2.213390
 H         2.960318        -0.379695         2.455873
