19
Iteration:  2169
 C         0.391104         0.363227         0.147842
 C         1.529319        -0.585167        -0.224339
 C         1.629522        -1.214814        -1.591545
 C         2.536238        -0.177030        -1.209072
 O         3.864223        -0.486067        -0.838657
 C         4.127026        -0.400998         0.517120
 C         4.535303        -1.574220         1.325264
 C         3.109682        -0.916096         1.556357
 O         1.887109        -1.438609         0.859690
 H         0.606440         0.876240         1.028119
 H         0.128976         1.027798        -0.700276
 H        -0.582547        -0.103065         0.471603
 H         2.173608        -2.177680        -1.590795
 H         0.981727        -1.214034        -2.446322
 H         2.486124         0.882838        -1.574677
 H         4.440083         0.518024         0.668834
 H         4.560189        -2.414220         0.564331
 H         5.314751        -1.701640         2.173003
 H         3.005164        -0.268128         2.530409
