19
Iteration:  3314charge 0 multiplicity 1
 C         0.334548         0.317793         0.272396
 C         1.453521        -0.709115        -0.256134
 C         1.557434        -1.096847        -1.682503
 C         2.579601        -0.120653        -1.107240
 O         3.908128        -0.662455        -0.911959
 C         4.213045        -0.358701         0.435089
 C         4.415342        -1.544302         1.367442
 C         3.143504        -0.742579         1.461685
 O         1.988043        -1.491664         0.918825
 H         0.285210         1.152975        -0.444757
 H        -0.565549        -0.259525         0.311738
 H         0.524510         0.766801         1.244506
 H         2.023047        -2.096275        -1.790470
 H         0.801537        -0.862338        -2.499918
 H         2.660497         0.955037        -1.449298
 H         4.744659         0.605858         0.850193
 H         4.202684        -2.481995         0.910989
 H         5.105601        -1.499437         2.226554
 H         2.954111        -0.200225         2.357687
