19
Iteration:  3932charge 0 multiplicity 1
 C         0.441133         0.383831         0.193360
 C         1.523811        -0.579972        -0.202527
 C         1.651201        -1.399428        -1.532806
 C         2.545231        -0.126385        -1.173739
 O         3.925612        -0.395795        -0.902957
 C         4.132258        -0.349994         0.556516
 C         4.320667        -1.700165         1.197446
 C         3.099971        -0.851246         1.567551
 O         1.986265        -1.404434         0.858708
 H        -0.188417         0.739573        -0.633234
 H        -0.310251        -0.077640         0.922915
 H         0.798227         1.353788         0.543706
 H         2.042419        -2.483267        -1.576107
 H         0.723427        -1.179502        -2.285180
 H         2.324849         0.799620        -1.821475
 H         4.801876         0.470140         0.983345
 H         4.015464        -2.511787         0.596009
 H         5.126678        -1.868442         1.919343
 H         2.946837        -0.382544         2.508145
