19
Iteration:  4812charge 0 multiplicity 1
 C         0.537316         0.371666         0.280808
 C         1.474015        -0.620796        -0.234716
 C         1.520793        -1.296967        -1.624897
 C         2.532771        -0.207009        -1.145964
 O         3.905202        -0.563697        -0.802295
 C         4.158480        -0.366155         0.531604
 C         4.381549        -1.545146         1.374365
 C         3.042079        -0.752937         1.414209
 O         2.018932        -1.487212         0.721401
 H         0.298083         1.182871        -0.360211
 H        -0.417056         0.100673         0.729614
 H         0.928362         1.119602         1.049557
 H         1.832513        -2.308039        -1.584933
 H         0.787427        -0.977594        -2.406349
 H         2.525358         0.819140        -1.586039
 H         4.729100         0.679761         0.842751
 H         4.196798        -2.438750         0.776945
 H         5.172551        -1.759020         2.129210
 H         2.834998        -0.034460         2.272399
