19
Iteration:  2906
 C         0.288003         0.234295         0.137129
 C         1.508398        -0.518189        -0.164428
 C         1.611320        -1.322395        -1.455660
 C         2.538546        -0.176239        -1.152369
 O         3.948399        -0.423370        -0.933774
 C         4.291740        -0.402156         0.485553
 C         4.318254        -1.699724         1.267656
 C         3.164163        -0.731214         1.451810
 O         1.970406        -1.375354         0.888311
 H         0.352998         0.798553         1.140135
 H         0.129382         1.169520        -0.392881
 H        -0.682835        -0.306498        -0.023501
 H         2.178539        -2.262604        -1.316581
 H         0.720423        -1.421047        -2.036791
 H         2.392270         0.812006        -1.515473
 H         5.104883         0.375380         0.682998
 H         4.001633        -2.583201         0.735653
 H         5.012587        -1.816969         2.068244
 H         2.887981        -0.021280         2.265206
