19
Iteration:  2686
 C         0.307688         0.323112         0.087591
 C         1.490793        -0.576066        -0.155777
 C         1.567247        -1.351452        -1.432603
 C         2.500866        -0.166297        -1.245099
 O         3.888152        -0.604049        -0.865923
 C         4.150920        -0.336474         0.500482
 C         4.535608        -1.528526         1.263325
 C         3.188650        -0.882969         1.501413
 O         1.993647        -1.322055         0.903849
 H        -0.713562         0.073192        -0.307366
 H         0.135690         0.604754         1.119588
 H         0.325118         1.332187        -0.322532
 H         2.126956        -2.280361        -1.469337
 H         0.734474        -1.231890        -2.239708
 H         2.614509         0.857425        -1.671706
 H         4.607673         0.589403         0.547129
 H         4.297536        -2.407838         0.619494
 H         5.196448        -1.600288         2.150448
 H         3.106020        -0.326045         2.457427
