19
Iteration:  4846
 C         0.580808         0.462313         0.316332
 C         1.564143        -0.521575        -0.250374
 C         1.572743        -1.327779        -1.589093
 C         2.572675        -0.223694        -1.265691
 O         3.894345        -0.490941        -0.857918
 C         4.033511        -0.376109         0.530864
 C         4.461364        -1.543724         1.396153
 C         3.038660        -0.936730         1.445954
 O         1.887889        -1.486652         0.770161
 H         0.113222         0.965107        -0.503114
 H        -0.233841         0.044650         0.922384
 H         1.196856         1.103931         1.059263
 H         1.900886        -2.402374        -1.457511
 H         0.827062        -1.128801        -2.278481
 H         2.443487         0.624494        -1.903827
 H         4.436500         0.688037         0.960258
 H         4.527141        -2.434533         0.809909
 H         5.133840        -1.375506         2.207053
 H         2.687471        -0.269328         2.290192
