19
Iteration:  3894
 C         0.190662         0.345238         0.119545
 C         1.491287        -0.578210        -0.206646
 C         1.589963        -1.254301        -1.594059
 C         2.479977        -0.088183        -1.133104
 O         3.976657        -0.472267        -0.918360
 C         4.268892        -0.451821         0.500942
 C         4.442971        -1.694595         1.365508
 C         3.175107        -0.874882         1.467871
 O         1.981428        -1.361822         0.932376
 H        -0.266359         0.755916        -0.852841
 H        -0.692452        -0.206144         0.737281
 H         0.638687         0.985634         0.947778
 H         1.978472        -2.160372        -1.835670
 H         0.903957        -0.976943        -2.318612
 H         2.496710         0.890495        -1.490157
 H         4.901695         0.409313         0.664704
 H         4.354422        -2.697531         0.787804
 H         5.207557        -1.618297         2.193078
 H         2.923577        -0.301686         2.420943
