19
Iteration:  4787
 C         0.346409         0.269946         0.181541
 C         1.544197        -0.540686        -0.195602
 C         1.531733        -1.124427        -1.662824
 C         2.553925        -0.119773        -1.187963
 O         3.899461        -0.675591        -0.928801
 C         4.191759        -0.373966         0.474929
 C         4.402024        -1.555213         1.422266
 C         3.126095        -0.912393         1.536234
 O         2.007029        -1.405596         0.878577
 H         0.116956         1.120775        -0.527093
 H        -0.612127        -0.208091         0.466710
 H         0.509967         1.038677         0.953209
 H         1.820118        -2.196738        -1.672925
 H         0.601264        -0.852072        -2.218804
 H         2.643511         0.891622        -1.726066
 H         4.807292         0.505340         0.714226
 H         4.578735        -2.630373         1.134745
 H         5.160348        -1.293673         2.191651
 H         2.956597        -0.235547         2.380173
