19
Iteration:    23charge 0 multiplicity 1
 C         0.301775         0.346956         0.319973
 C         1.473908        -0.578727        -0.147040
 C         1.573679        -1.222651        -1.482930
 C         2.631197        -0.207850        -1.249518
 O         4.014503        -0.612398        -1.032150
 C         4.162003        -0.354175         0.406762
 C         4.340292        -1.436371         1.386072
 C         3.029199        -0.787606         1.534375
 O         2.041912        -1.545868         0.814672
 H         0.447252         0.718542         1.343502
 H         0.301485         1.203577        -0.348284
 H        -0.666875        -0.149348         0.221283
 H         1.979335        -2.211204        -1.476924
 H         0.844350        -1.025771        -2.273160
 H         2.655926         0.776928        -1.662131
 H         4.725676         0.572209         0.603155
 H         4.242048        -2.438564         1.073934
 H         5.084986        -1.338524         2.163979
 H         2.782289        -0.127719         2.332703
