19
Iteration:  2431charge 0 multiplicity 1
 C         0.320320         0.247954         0.100050
 C         1.531144        -0.608102        -0.191406
 C         1.590387        -1.173570        -1.565675
 C         2.605933        -0.077889        -1.205368
 O         3.846344        -0.616016        -0.901720
 C         4.174232        -0.357378         0.589041
 C         4.437502        -1.585587         1.295211
 C         3.123452        -0.884596         1.485654
 O         1.989605        -1.372300         0.963553
 H         0.573820         1.201566         0.470535
 H        -0.158473         0.405966        -0.912858
 H        -0.237631        -0.265297         0.921969
 H         1.999993        -2.109954        -1.867572
 H         0.784835        -0.891071        -2.202829
 H         2.506344         0.971568        -1.611747
 H         4.745789         0.527615         0.805427
 H         4.321226        -2.424009         0.621252
 H         5.183187        -1.608262         2.110607
 H         2.948674        -0.157443         2.310087
