19
Iteration:   733
 C         0.258369         0.299515         0.060633
 C         1.534412        -0.631085        -0.143431
 C         1.689444        -1.308617        -1.472125
 C         2.518161        -0.098018        -1.076325
 O         3.931296        -0.431014        -0.905206
 C         4.210853        -0.337539         0.438796
 C         4.330524        -1.711418         1.231239
 C         3.145703        -0.853000         1.490792
 O         1.971805        -1.338657         0.959615
 H         0.413462         1.320813         0.398119
 H        -0.269636         0.108059        -0.850519
 H        -0.425530        -0.228683         0.833753
 H         2.279820        -2.238503        -1.631562
 H         0.995959        -0.928196        -2.250260
 H         2.353186         0.887927        -1.589683
 H         4.871198         0.371608         0.650754
 H         4.289918        -2.527919         0.454508
 H         5.153005        -1.791994         2.005054
 H         3.078482        -0.398010         2.479524
