19
Iteration:  1062
 C         0.215401         0.286300         0.160986
 C         1.466509        -0.569011        -0.227888
 C         1.578012        -1.255364        -1.661361
 C         2.526106        -0.117426        -1.201045
 O         3.883928        -0.554358        -0.883239
 C         4.216258        -0.408704         0.550136
 C         4.527017        -1.637611         1.415518
 C         3.191115        -0.801350         1.476373
 O         2.013948        -1.346243         0.870802
 H         0.499733         0.917884         1.041424
 H        -0.142576         0.855455        -0.672813
 H        -0.709899        -0.332479         0.499353
 H         2.013743        -2.239309        -1.702746
 H         0.656504        -1.085195        -2.190861
 H         2.571766         0.955675        -1.589740
 H         4.774241         0.484200         0.761019
 H         4.490056        -2.604716         0.925395
 H         5.258868        -1.602818         2.213493
 H         3.017699        -0.327724         2.477131
