19
Iteration:  1059
 C         0.187471         0.282748         0.170273
 C         1.492153        -0.595949        -0.246659
 C         1.559275        -1.238073        -1.644484
 C         2.515101        -0.116852        -1.203509
 O         3.872944        -0.533326        -0.874266
 C         4.215871        -0.413928         0.554180
 C         4.530995        -1.660019         1.426960
 C         3.197844        -0.800325         1.457715
 O         2.023106        -1.321504         0.879848
 H         0.436073         0.869322         0.971155
 H         0.006648         0.889996        -0.779797
 H        -0.727312        -0.312333         0.503361
 H         2.094285        -2.225234        -1.705634
 H         0.623589        -1.182503        -2.268215
 H         2.618171         0.871064        -1.560048
 H         4.787541         0.389708         0.806417
 H         4.547387        -2.632795         0.905390
 H         5.298454        -1.679483         2.237928
 H         3.032966        -0.225841         2.344177
