19
Iteration:   341charge 0 multiplicity 1
 C         0.369525         0.371853         0.263926
 C         1.500716        -0.663332        -0.259780
 C         1.528848        -1.175542        -1.694180
 C         2.525393        -0.180335        -1.230930
 O         3.846009        -0.685656        -0.832782
 C         4.077606        -0.312759         0.502135
 C         4.531086        -1.470424         1.430516
 C         3.170114        -0.832387         1.511733
 O         2.038001        -1.489736         0.826348
 H         0.833123         1.313721         0.712828
 H        -0.072002         0.800607        -0.553647
 H        -0.444877        -0.108090         0.939290
 H         1.963127        -2.195809        -1.826334
 H         0.642723        -0.774906        -2.257351
 H         2.443992         0.858206        -1.663899
 H         4.536927         0.794097         0.499652
 H         4.640269        -2.544448         1.120676
 H         5.339981        -1.326793         2.191531
 H         2.971081        -0.296503         2.376117
