19
Iteration:  3694charge 0 multiplicity 1
 C         0.302785         0.215300         0.148977
 C         1.496056        -0.599093        -0.211811
 C         1.506336        -1.177675        -1.636246
 C         2.555142        -0.115027        -1.149037
 O         3.901580        -0.481227        -0.843846
 C         4.319116        -0.442438         0.503732
 C         4.366062        -1.755622         1.372846
 C         3.166618        -0.825428         1.471468
 O         2.008214        -1.288454         0.909456
 H         0.059339         1.097925        -0.568777
 H        -0.566684        -0.410700         0.303543
 H         0.523081         0.905296         1.038611
 H         1.999018        -2.187776        -1.894045
 H         0.842994        -0.962953        -2.476108
 H         2.413403         0.872663        -1.627939
 H         4.766888         0.434665         0.728202
 H         4.162079        -2.631989         0.804762
 H         5.070525        -1.691244         2.115579
 H         3.069263        -0.137785         2.251354
