19
Iteration:  3967
 C         0.383881         0.420830         0.227417
 C         1.487231        -0.561340        -0.279243
 C         1.620492        -1.367884        -1.533717
 C         2.563216        -0.179210        -1.108753
 O         3.906745        -0.448947        -0.835140
 C         4.193326        -0.360212         0.564497
 C         4.473402        -1.629826         1.227603
 C         3.133923        -0.929376         1.392595
 O         1.859703        -1.372855         0.863610
 H        -0.012077         0.930696        -0.719609
 H        -0.379095        -0.190690         0.642289
 H         0.715854         1.098681         1.036040
 H         1.884364        -2.420911        -1.388798
 H         0.802036        -1.002482        -2.371245
 H         2.480582         0.618821        -1.853882
 H         4.671302         0.536311         0.848924
 H         4.618283        -2.661278         0.676232
 H         5.120369        -1.518663         2.167881
 H         3.005408        -0.382830         2.340469
