19
Iteration:  4128
 C         0.544521         0.371907         0.107249
 C         1.503181        -0.645842        -0.195370
 C         1.558081        -1.194655        -1.515735
 C         2.597791        -0.129598        -1.152365
 O         3.867942        -0.475357        -0.888916
 C         4.110649        -0.287789         0.541200
 C         4.494912        -1.613257         1.308470
 C         3.070007        -0.980379         1.462784
 O         1.876310        -1.461753         0.918283
 H         0.073206         0.712269        -0.846147
 H        -0.380937        -0.072591         0.775892
 H         0.960379         1.217072         0.722293
 H         1.892764        -2.173112        -1.797796
 H         0.830097        -1.091327        -2.335783
 H         2.309582         0.754248        -1.769761
 H         4.614514         0.643351         0.775827
 H         4.455178        -2.387271         0.511920
 H         5.246636        -1.684728         2.105448
 H         2.975894        -0.598107         2.437668
