19
Iteration:  3765
 C         0.464384         0.346856         0.290210
 C         1.453193        -0.557456        -0.285179
 C         1.498017        -1.263820        -1.696200
 C         2.589008        -0.240054        -1.218244
 O         3.910280        -0.546660        -0.780339
 C         4.162818        -0.298221         0.633974
 C         4.493437        -1.551808         1.304085
 C         3.097456        -0.960574         1.413339
 O         1.915942        -1.395014         0.823925
 H        -0.132905         0.934706        -0.339522
 H        -0.179302        -0.135377         1.091864
 H         0.949684         1.229650         0.661909
 H         1.645986        -2.337581        -1.777141
 H         0.847647        -0.836540        -2.480400
 H         2.704639         0.733093        -1.681208
 H         4.701586         0.737126         0.844739
 H         4.581970        -2.434362         0.646238
 H         5.096727        -1.312834         2.252839
 H         2.899929        -0.643871         2.495974
