19
Iteration:  4942
 C         0.195905         0.150521         0.193013
 C         1.462622        -0.488103        -0.213561
 C         1.572050        -1.138525        -1.648348
 C         2.637509        -0.138020        -1.133608
 O         3.979481        -0.602086        -0.921620
 C         4.282648        -0.481492         0.454845
 C         4.321904        -1.748508         1.381698
 C         3.193181        -0.686110         1.481236
 O         1.989233        -1.245581         0.937584
 H        -0.217428         0.933795        -0.468657
 H        -0.745819        -0.497330         0.227510
 H         0.405642         0.542985         1.215681
 H         1.854148        -2.248718        -1.657660
 H         0.906345        -0.903518        -2.400893
 H         2.646034         0.845849        -1.673196
 H         5.142342         0.187273         0.641515
 H         3.901460        -2.660169         0.955219
 H         5.129029        -1.762801         2.083160
 H         2.934562         0.065919         2.357704
