19
Iteration:  4510charge 0 multiplicity 1
 C         0.419327         0.386602         0.108669
 C         1.580767        -0.680926        -0.200378
 C         1.507284        -1.192744        -1.550528
 C         2.544745        -0.163941        -1.212447
 O         3.819368        -0.548253        -0.841487
 C         4.129396        -0.321233         0.550409
 C         4.485048        -1.588839         1.264614
 C         3.141374        -0.888098         1.533226
 O         1.992822        -1.470846         0.863863
 H         0.333361         0.984838        -0.845002
 H        -0.586242         0.087740         0.559676
 H         0.850236         1.115985         0.803909
 H         1.872219        -2.256524        -1.769375
 H         0.608061        -0.817868        -2.086867
 H         2.561703         0.901727        -1.349238
 H         4.478398         0.649969         0.756164
 H         4.419855        -2.519681         0.682110
 H         5.185450        -1.592046         2.153717
 H         3.024279        -0.295549         2.532210
