19
Iteration:  1627
 C         0.460656         0.316580         0.244153
 C         1.438470        -0.694120        -0.248248
 C         1.537760        -1.193949        -1.658831
 C         2.549558        -0.142115        -1.184244
 O         3.908600        -0.554088        -0.809742
 C         4.193630        -0.311048         0.529373
 C         4.425537        -1.556014         1.379797
 C         3.141503        -0.804130         1.458035
 O         1.956503        -1.472768         0.771204
 H         0.899095         0.815615         1.128923
 H         0.004500         1.142083        -0.439189
 H        -0.403785        -0.259304         0.508522
 H         1.809945        -2.222871        -1.748368
 H         0.726540        -0.978797        -2.346379
 H         2.408932         0.888519        -1.547810
 H         4.851064         0.609295         0.930791
 H         4.435859        -2.568211         1.003371
 H         5.044770        -1.507071         2.257477
 H         2.855307        -0.304740         2.341457
