19
Iteration:   560charge 0 multiplicity 1
 C         0.433087         0.307807         0.335898
 C         1.460015        -0.621106        -0.237640
 C         1.515383        -1.170826        -1.675575
 C         2.554610        -0.209938        -1.250782
 O         3.873029        -0.627433        -0.840478
 C         4.156298        -0.334702         0.537142
 C         4.394217        -1.457343         1.445058
 C         3.079427        -0.811441         1.463319
 O         2.072462        -1.515375         0.748166
 H         1.120218         1.166196         0.706418
 H        -0.078644         0.752417        -0.413520
 H        -0.186876        -0.202577         1.170130
 H         1.937264        -2.145437        -1.805206
 H         0.795848        -0.745523        -2.353151
 H         2.530617         0.821218        -1.672137
 H         4.516237         0.697642         0.491154
 H         4.649497        -2.441924         1.117451
 H         5.058912        -1.227819         2.263107
 H         2.849130        -0.258763         2.277691
