19
Iteration:   943charge 0 multiplicity 1
 C         0.308039         0.301675         0.014856
 C         1.526025        -0.585911        -0.095178
 C         1.611869        -1.337019        -1.440882
 C         2.512612        -0.173089        -1.109244
 O         4.014274        -0.394757        -0.860073
 C         4.181599        -0.362637         0.502036
 C         4.334749        -1.620558         1.122068
 C         3.135055        -0.882307         1.458936
 O         1.960795        -1.373150         0.960714
 H         0.517101         1.321164         0.354287
 H        -0.225064         0.293363        -0.875056
 H        -0.354244         0.024794         0.805682
 H         2.229915        -2.224672        -1.449687
 H         0.920753        -1.270441        -2.265346
 H         2.249728         0.815392        -1.544012
 H         4.736217         0.497627         0.881167
 H         4.261883        -2.483974         0.477434
 H         5.145882        -1.675063         1.826782
 H         3.039023        -0.516542         2.471974
