19
Iteration:  1880charge 0 multiplicity 1
 C         0.310435         0.329429         0.244335
 C         1.430117        -0.555255        -0.221771
 C         1.707907        -1.318177        -1.571364
 C         2.568162        -0.173663        -1.194642
 O         3.912461        -0.402954        -0.890205
 C         4.306860        -0.352833         0.520730
 C         4.323483        -1.666346         1.266831
 C         3.120753        -0.906809         1.404697
 O         1.929827        -1.344901         0.938152
 H         0.609185         1.169171         1.044273
 H        -0.191513         0.733345        -0.703981
 H        -0.426821        -0.436050         0.634896
 H         2.317363        -2.173676        -1.404484
 H         1.035470        -1.649938        -2.363819
 H         2.330796         0.769209        -1.829482
 H         4.890730         0.526647         0.917418
 H         4.183752        -2.629259         0.651319
 H         4.927744        -1.727841         2.213445
 H         3.072193        -0.311178         2.405064
