19
Iteration:   772
 C         0.351489         0.297483         0.218491
 C         1.473857        -0.562140        -0.193816
 C         1.587531        -1.381846        -1.583224
 C         2.566177        -0.192476        -1.166346
 O         3.892597        -0.403647        -0.869018
 C         4.137534        -0.360394         0.572440
 C         4.436637        -1.639154         1.291517
 C         3.124911        -0.847931         1.488654
 O         1.984488        -1.368745         0.823038
 H         0.683130         1.223591         0.793839
 H        -0.189988         0.870467        -0.644993
 H        -0.288751        -0.278762         0.815506
 H         1.990825        -2.340272        -1.833087
 H         0.952284        -1.051656        -2.355469
 H         2.512133         0.622936        -1.850505
 H         4.980979         0.476278         0.770376
 H         4.618213        -2.539959         0.753522
 H         5.167851        -1.522789         2.028310
 H         2.837315        -0.289855         2.446290
