19
Iteration:  2455charge 0 multiplicity 1
 C         0.320036         0.318149         0.117229
 C         1.472554        -0.598233        -0.191623
 C         1.560476        -1.122370        -1.664283
 C         2.558220        -0.211116        -1.126834
 O         3.827142        -0.694057        -0.849172
 C         4.243953        -0.315921         0.540240
 C         4.556074        -1.498877         1.342922
 C         3.165727        -0.872478         1.492655
 O         1.941819        -1.430765         0.865540
 H         0.607381         0.983030         0.920085
 H         0.057731         0.947729        -0.730000
 H        -0.408649        -0.324958         0.527626
 H         1.830251        -2.136735        -1.840029
 H         0.794961        -0.737177        -2.386422
 H         2.403627         0.857942        -1.268568
 H         4.588689         0.596599         0.602876
 H         4.656641        -2.463399         0.920140
 H         5.109582        -1.331492         2.237377
 H         2.969885        -0.222310         2.350120
