19
Iteration:   666
 C         0.261616         0.201527         0.149976
 C         1.463000        -0.554794        -0.211589
 C         1.645173        -1.267160        -1.512138
 C         2.587088        -0.085444        -1.162924
 O         3.895879        -0.529347        -0.911587
 C         4.264005        -0.404189         0.504134
 C         4.407084        -1.651301         1.275279
 C         3.184926        -0.806909         1.482734
 O         1.923420        -1.302081         0.965656
 H         0.313613         0.576805         1.102835
 H        -0.026379         0.903749        -0.722948
 H        -0.532885        -0.535453         0.098599
 H         2.071566        -2.238383        -1.552287
 H         1.043584        -1.069653        -2.373557
 H         2.427837         0.892274        -1.663309
 H         4.751524         0.449116         0.761636
 H         4.128748        -2.344810         0.510917
 H         5.274997        -1.670604         1.895295
 H         3.122865        -0.264302         2.496848
