19
Iteration:  2485
 C         0.384196         0.342093         0.270083
 C         1.484693        -0.568164        -0.214421
 C         1.562455        -1.213024        -1.558092
 C         2.578364        -0.195097        -1.228986
 O         3.873906        -0.688138        -0.876651
 C         4.156201        -0.336565         0.509498
 C         4.403869        -1.476653         1.396282
 C         3.106005        -0.805227         1.477645
 O         2.055467        -1.479119         0.706196
 H         0.599832         0.445673         1.309416
 H         0.414101         1.459000        -0.014680
 H        -0.622067        -0.153284         0.152630
 H         1.964043        -2.157469        -1.448591
 H         0.748952        -1.029145        -2.233220
 H         2.556177         0.865226        -1.510991
 H         4.523151         0.749355         0.602861
 H         4.511644        -2.510557         1.201262
 H         4.998093        -1.229567         2.266964
 H         2.768126        -0.170866         2.284495
