19
Iteration:  2876charge 0 multiplicity 1
 C         0.275860         0.281920         0.149933
 C         1.485941        -0.516503        -0.244697
 C         1.635962        -1.337778        -1.555148
 C         2.555998        -0.285740        -1.277827
 O         3.873786        -0.427423        -0.892017
 C         4.235378        -0.340711         0.497211
 C         4.424266        -1.689038         1.271671
 C         3.201470        -0.862230         1.555466
 O         1.946707        -1.275444         0.986080
 H         0.202431         0.263419         1.290720
 H         0.514917         1.371442        -0.156958
 H        -0.808061        -0.026953        -0.046884
 H         1.824422        -2.336507        -1.532651
 H         0.845238        -1.133898        -2.204371
 H         2.444649         0.630761        -1.851421
 H         4.952842         0.546707         0.805985
 H         4.433075        -2.535128         0.508655
 H         5.030848        -1.736643         2.204567
 H         3.092549        -0.218684         2.437093
