19
Iteration:  1897charge 0 multiplicity 1
 C         0.292861         0.256111         0.221203
 C         1.472360        -0.594872        -0.259943
 C         1.674884        -1.293571        -1.558023
 C         2.569905        -0.095720        -1.195991
 O         3.905326        -0.554765        -0.835867
 C         4.164360        -0.368892         0.514086
 C         4.419014        -1.658735         1.298916
 C         3.140879        -0.780962         1.486099
 O         1.953565        -1.339208         0.833040
 H         0.677549         0.884449         1.026278
 H        -0.112279         1.005781        -0.486982
 H        -0.446897        -0.227143         0.781621
 H         2.107891        -2.320937        -1.536835
 H         0.967917        -0.957769        -2.306983
 H         2.434331         0.886817        -1.624577
 H         4.803185         0.559040         0.663897
 H         4.366457        -2.544598         0.724132
 H         5.154128        -1.667058         2.057243
 H         2.931691        -0.303927         2.387245
