19
Iteration:  3584
 C         0.438052         0.465375         0.271345
 C         1.462816        -0.604049        -0.214122
 C         1.630687        -1.252260        -1.569592
 C         2.550789        -0.145880        -1.091978
 O         3.940520        -0.603562        -0.813053
 C         4.116493        -0.319736         0.533629
 C         4.430742        -1.522800         1.253497
 C         3.036457        -0.923235         1.405280
 O         1.964962        -1.497017         0.782171
 H        -0.339149         0.755115        -0.559958
 H        -0.335425        -0.062740         0.864452
 H         1.125938         1.214448         0.837348
 H         2.062546        -2.240413        -1.567864
 H         0.828818        -0.978899        -2.370246
 H         2.620751         0.816220        -1.692129
 H         4.607908         0.572226         0.557710
 H         4.473129        -2.435823         0.739871
 H         5.156564        -1.476350         2.059487
 H         2.756328        -0.358640         2.288027
