19
Iteration:  2518charge 0 multiplicity 1
 C         0.467360         0.325789         0.340293
 C         1.454553        -0.694232        -0.259389
 C         1.499895        -1.252563        -1.606570
 C         2.585792        -0.295211        -1.298789
 O         3.947336        -0.536900        -0.885728
 C         4.173560        -0.296571         0.502564
 C         4.356902        -1.518175         1.424443
 C         3.079785        -0.723700         1.442803
 O         2.044247        -1.468800         0.796792
 H         0.529197         0.077364         1.351391
 H         0.746482         1.405181         0.171818
 H        -0.633782         0.359073         0.156574
 H         1.669321        -2.267700        -1.694639
 H         0.725486        -0.873282        -2.257464
 H         2.605959         0.714478        -1.668068
 H         4.613841         0.612718         0.929363
 H         4.158357        -2.511945         1.115621
 H         4.949262        -1.379140         2.273264
 H         2.800809        -0.025496         2.209215
