19
Iteration:  1101charge 0 multiplicity 1
 C         0.424989         0.360803         0.315839
 C         1.523158        -0.663564        -0.261643
 C         1.580648        -1.173330        -1.582638
 C         2.564377        -0.149361        -1.198927
 O         3.937138        -0.704755        -0.840487
 C         4.095011        -0.268498         0.521680
 C         4.435695        -1.465377         1.395418
 C         3.065515        -0.797067         1.403890
 O         1.995588        -1.523132         0.754534
 H         0.850365         1.154714         0.965911
 H        -0.095228         0.932955        -0.552550
 H        -0.126113        -0.255987         1.004194
 H         1.846434        -2.242628        -1.793428
 H         0.656978        -0.995569        -2.186780
 H         2.504933         0.851483        -1.504493
 H         4.312274         0.851244         0.644105
 H         4.443889        -2.406851         0.806245
 H         5.080586        -1.495186         2.303967
 H         2.772518        -0.310246         2.277445
