19
Iteration:  2953
 C         0.356077         0.240907         0.104937
 C         1.520470        -0.593005        -0.251531
 C         1.536484        -1.182507        -1.599794
 C         2.560118        -0.062543        -1.195343
 O         3.853130        -0.644830        -0.840023
 C         4.220189        -0.393012         0.459720
 C         4.486242        -1.595687         1.324606
 C         3.150606        -0.846205         1.545602
 O         1.963966        -1.327101         0.966889
 H         0.448916         1.276834         0.419515
 H        -0.458788         0.396022        -0.695006
 H        -0.213767        -0.373543         0.885945
 H         1.846994        -2.129365        -1.757360
 H         0.794660        -0.920230        -2.317419
 H         2.590607         0.943653        -1.636086
 H         4.705586         0.560273         0.827056
 H         4.487216        -2.453958         0.610580
 H         5.230282        -1.563562         2.172800
 H         2.972666        -0.430325         2.524249
