19
Iteration:   150
 C         0.304642         0.251595         0.146254
 C         1.546978        -0.577323        -0.201818
 C         1.606157        -1.363747        -1.461284
 C         2.574101        -0.079305        -1.144892
 O         3.907260        -0.501416        -0.954061
 C         4.256114        -0.336160         0.513581
 C         4.268433        -1.652202         1.293747
 C         3.143401        -0.734218         1.481003
 O         1.999840        -1.365174         0.881037
 H         0.502299         1.188749         0.541261
 H        -0.533403         0.397496        -0.618833
 H        -0.038407        -0.299057         0.962374
 H         2.235628        -2.214420        -1.471473
 H         0.720461        -1.317432        -2.112622
 H         2.369116         0.878112        -1.672730
 H         5.098324         0.283928         0.597409
 H         4.252875        -2.364527         0.460917
 H         4.974175        -1.939160         2.121967
 H         2.948032        -0.273263         2.558205
