19
Iteration:  2301
 C         0.261766         0.250451         0.046211
 C         1.519185        -0.536102        -0.170534
 C         1.489366        -1.245236        -1.529974
 C         2.599184        -0.079556        -1.213852
 O         3.885686        -0.602324        -0.817782
 C         4.235969        -0.351441         0.535951
 C         4.517666        -1.617140         1.270174
 C         3.183207        -0.884414         1.526515
 O         1.949899        -1.348087         0.914802
 H         0.239526         0.674728         1.037989
 H         0.096264         1.126108        -0.692310
 H        -0.603695        -0.453712        -0.107121
 H         1.850351        -2.283229        -1.679128
 H         0.777479        -0.904488        -2.259090
 H         2.551464         0.979468        -1.663855
 H         4.643254         0.535521         0.781560
 H         4.550828        -2.622704         0.689532
 H         5.236561        -1.691482         2.169141
 H         3.052986        -0.022002         2.322176
