19
Iteration:  4795charge 0 multiplicity 1
 C         0.429642         0.347506         0.203456
 C         1.518754        -0.598163        -0.215587
 C         1.530175        -1.146937        -1.603537
 C         2.594021        -0.167305        -1.230395
 O         3.842759        -0.620091        -0.893111
 C         4.187716        -0.343362         0.494421
 C         4.404473        -1.590797         1.420283
 C         3.116637        -0.846757         1.493031
 O         2.020361        -1.438216         0.849730
 H         0.069380         0.969483        -0.685985
 H        -0.559610        -0.185850         0.532121
 H         0.672206         0.814985         1.152285
 H         1.856956        -2.241254        -1.769261
 H         0.751483        -0.755316        -2.199358
 H         2.495096         0.793779        -1.699092
 H         4.751536         0.461688         0.707461
 H         4.405288        -2.604298         1.037511
 H         5.011779        -1.295368         2.241473
 H         2.800847        -0.308593         2.352357
