19
Iteration:   361charge 0 multiplicity 1
 C         0.405618         0.340740         0.161624
 C         1.486283        -0.593958        -0.178159
 C         1.566310        -1.201541        -1.488299
 C         2.561764        -0.220557        -1.122072
 O         3.845744        -0.609067        -0.855501
 C         4.197741        -0.282228         0.504272
 C         4.422207        -1.492362         1.328186
 C         3.111512        -0.827715         1.448344
 O         2.029102        -1.492528         0.765232
 H         0.730246         1.290301         0.521715
 H        -0.292573         0.456220        -0.681209
 H        -0.135841        -0.216390         0.975463
 H         1.824322        -2.277953        -1.602936
 H         0.756342        -0.996632        -2.241787
 H         2.460945         0.823128        -1.526702
 H         4.875017         0.627131         0.639600
 H         4.368381        -2.398201         0.690131
 H         5.141332        -1.529677         2.189597
 H         2.697910        -0.254133         2.350962
