19
Iteration:  3524
 C         0.388306         0.343213         0.271439
 C         1.476887        -0.600635        -0.139788
 C         1.572229        -1.109184        -1.601629
 C         2.555131        -0.162847        -1.156728
 O         3.926041        -0.600478        -0.932333
 C         4.208758        -0.377168         0.396182
 C         4.364596        -1.545142         1.496266
 C         3.071169        -0.826018         1.409353
 O         2.044204        -1.529847         0.797960
 H         0.031996         0.864704        -0.571687
 H        -0.380732        -0.335729         0.645150
 H         0.533948         0.972843         1.097997
 H         1.994503        -2.091457        -1.754345
 H         0.808202        -0.811145        -2.338504
 H         2.551211         0.848417        -1.516367
 H         4.854395         0.558856         0.702779
 H         4.195287        -2.537635         1.054011
 H         5.062716        -1.447074         2.359143
 H         2.622978        -0.040039         2.084149
