19
Iteration:  4652charge 0 multiplicity 1
 C         0.464789         0.430748         0.101504
 C         1.521754        -0.578986        -0.223426
 C         1.528254        -1.361069        -1.534586
 C         2.567629        -0.164458        -1.229072
 O         3.893960        -0.478895        -0.819857
 C         4.101528        -0.275264         0.579061
 C         4.465728        -1.619351         1.226904
 C         3.177639        -1.008870         1.529826
 O         1.904647        -1.348311         0.892236
 H         0.170135         0.871917        -0.940531
 H        -0.295915        -0.230681         0.700897
 H         0.867073         1.008880         0.951968
 H         1.729130        -2.368379        -1.297349
 H         0.630788        -1.180539        -2.242878
 H         2.369294         0.767934        -1.760848
 H         4.596023         0.622417         0.779788
 H         4.370757        -2.310602         0.371182
 H         5.218394        -1.775246         1.991163
 H         3.076307        -0.667005         2.606801
