19
Iteration:  3547
 C         0.475934         0.283947         0.303570
 C         1.537414        -0.555442        -0.294808
 C         1.435613        -1.229335        -1.651889
 C         2.585757        -0.137450        -1.220708
 O         3.907209        -0.563502        -0.851212
 C         4.150255        -0.360077         0.537576
 C         4.409950        -1.583014         1.439556
 C         3.032775        -0.826568         1.467194
 O         2.052876        -1.414866         0.738955
 H        -0.128368         0.762626        -0.341492
 H        -0.062843        -0.314621         1.102952
 H         0.904108         1.019458         0.909119
 H         1.691068        -2.304861        -1.755311
 H         0.607681        -0.846567        -2.145948
 H         2.604038         0.657071        -1.915374
 H         4.836185         0.466739         0.924421
 H         4.422074        -2.670856         1.022811
 H         5.049512        -1.347924         2.317835
 H         2.624073        -0.300433         2.419584
