19
Iteration:  4640
 C         0.439717         0.385387         0.123628
 C         1.483076        -0.607302        -0.231636
 C         1.522940        -1.262862        -1.505816
 C         2.585794        -0.186430        -1.195315
 O         3.898361        -0.511083        -0.863496
 C         4.144866        -0.328695         0.573291
 C         4.532301        -1.600143         1.234605
 C         3.115295        -0.974596         1.440653
 O         1.907547        -1.395222         0.970809
 H         0.005022         1.036184        -0.733636
 H        -0.594193        -0.004964         0.458786
 H         0.816045         1.290674         0.687727
 H         1.912456        -2.266669        -1.600260
 H         0.769783        -1.022132        -2.271288
 H         2.570928         0.755477        -1.756782
 H         4.327056         0.709061         0.899968
 H         4.658891        -2.496477         0.549586
 H         5.217408        -1.685397         2.090049
 H         2.972417        -0.352538         2.410248
