19
Iteration:  4675
 C         0.385203         0.480797         0.194280
 C         1.422059        -0.595433        -0.210563
 C         1.639695        -1.394503        -1.470973
 C         2.587612        -0.232392        -1.223490
 O         3.873194        -0.375808        -0.812858
 C         4.200477        -0.377217         0.578814
 C         4.380289        -1.678995         1.180629
 C         3.126852        -0.878853         1.444138
 O         1.997848        -1.379100         0.864940
 H         0.132188         0.981747        -0.850932
 H        -0.528925        -0.019913         0.738791
 H         0.777300         1.116661         0.994603
 H         1.988424        -2.412587        -1.342001
 H         0.969561        -1.238067        -2.408365
 H         2.384559         0.548380        -1.943929
 H         4.642198         0.464341         0.893702
 H         4.175220        -2.467461         0.502115
 H         5.093774        -1.808839         1.984179
 H         2.962368        -0.389334         2.406308
