19
Iteration:  3896
 C         0.214468         0.342001         0.118026
 C         1.468020        -0.590724        -0.193803
 C         1.582123        -1.262601        -1.612145
 C         2.482643        -0.086304        -1.126979
 O         3.981383        -0.452382        -0.922695
 C         4.271023        -0.448837         0.503890
 C         4.447616        -1.707825         1.368031
 C         3.174524        -0.866378         1.471786
 O         1.969429        -1.359920         0.929360
 H        -0.157463         0.697860        -0.852891
 H        -0.635127        -0.227752         0.779453
 H         0.685538         1.010094         0.870469
 H         1.937244        -2.281519        -1.831260
 H         0.870147        -0.936795        -2.290843
 H         2.453236         0.927659        -1.517523
 H         4.946166         0.477083         0.700010
 H         4.345850        -2.669776         0.854993
 H         5.138954        -1.679564         2.149882
 H         2.958625        -0.297765         2.404458
