19
Iteration:  3091
 C         0.252230         0.323440         0.080974
 C         1.520222        -0.594434        -0.173402
 C         1.462418        -1.212668        -1.522413
 C         2.574228        -0.114022        -1.167585
 O         3.886940        -0.661773        -0.882283
 C         4.189306        -0.300104         0.521167
 C         4.509943        -1.574619         1.341513
 C         3.177231        -0.858385         1.465021
 O         2.004581        -1.442917         0.898520
 H         0.319112         0.670426         1.158148
 H         0.451814         1.216329        -0.377415
 H        -0.673612        -0.197856        -0.218077
 H         1.814503        -2.228496        -1.618253
 H         0.611876        -0.847319        -2.198854
 H         2.689173         0.837243        -1.702284
 H         4.770197         0.704732         0.646143
 H         4.714409        -2.431120         0.703405
 H         5.282571        -1.140632         2.025444
 H         2.966111        -0.376800         2.500314
