19
Iteration:  2258
 C         0.378468         0.261968         0.365107
 C         1.472456        -0.603862        -0.279695
 C         1.616055        -1.133620        -1.639231
 C         2.572920        -0.133652        -1.159813
 O         3.899377        -0.610648        -0.863884
 C         4.208772        -0.447199         0.447267
 C         4.336125        -1.509990         1.508482
 C         3.079068        -0.713448         1.366603
 O         2.033850        -1.505674         0.750682
 H         0.980908         0.830466         1.068258
 H        -0.195818         0.934343        -0.350994
 H        -0.322972        -0.410070         0.847936
 H         2.187626        -2.059969        -1.563060
 H         0.793886        -1.069180        -2.356906
 H         2.533158         0.927143        -1.607924
 H         4.638948         0.440472         0.624165
 H         4.080301        -2.529605         1.021970
 H         5.105491        -1.323731         2.342507
 H         2.741362         0.043692         2.191241
