19
Iteration:   906
 C         0.328917         0.276846         0.249633
 C         1.520332        -0.550556        -0.195322
 C         1.602538        -1.312853        -1.712604
 C         2.497422        -0.182562        -1.170702
 O         3.841670        -0.475286        -0.828198
 C         4.245417        -0.372725         0.485277
 C         4.416383        -1.618581         1.337238
 C         3.100925        -0.833923         1.470067
 O         2.019001        -1.343171         0.887086
 H         0.698594         1.078408         0.781046
 H        -0.193545         0.629268        -0.714279
 H        -0.419897        -0.357297         0.837574
 H         2.182228        -2.265600        -1.632807
 H         0.947475        -1.131291        -2.617867
 H         2.523972         0.750356        -1.796360
 H         4.861776         0.440154         0.770514
 H         4.416138        -2.684703         0.984740
 H         5.150321        -1.319656         2.154941
 H         2.954740        -0.335974         2.447463
