19
Iteration:  3650charge 0 multiplicity 1
 C         0.221159         0.220145         0.211230
 C         1.454498        -0.505479        -0.210696
 C         1.654923        -1.152151        -1.489227
 C         2.548434        -0.067421        -1.129018
 O         3.935193        -0.634033        -0.848900
 C         4.253129        -0.398305         0.476496
 C         4.363545        -1.690680         1.292406
 C         3.164869        -0.794599         1.425911
 O         2.002394        -1.328980         0.843556
 H         0.116408         1.148788        -0.519380
 H        -0.539678        -0.461117        -0.138443
 H         0.291242         0.636117         1.266531
 H         1.973080        -2.215119        -1.530510
 H         0.909272        -1.171483        -2.315264
 H         2.617431         0.886187        -1.734357
 H         4.879396         0.306490         0.812344
 H         4.219495        -2.412982         0.563901
 H         4.907022        -1.866655         2.170352
 H         3.139415        -0.205057         2.306697
