19
Iteration:    13
 C         0.298492         0.344331         0.250314
 C         1.463906        -0.620266        -0.152611
 C         1.606282        -1.221094        -1.515012
 C         2.610308        -0.157233        -1.216502
 O         3.994236        -0.628025        -1.002223
 C         4.141879        -0.322692         0.460964
 C         4.348557        -1.530629         1.345051
 C         3.056509        -0.743954         1.529634
 O         2.045789        -1.493090         0.850483
 H         0.554219         0.926669         1.231889
 H         0.113674         1.024881        -0.479278
 H        -0.694203        -0.239145         0.376713
 H         1.860239        -2.239280        -1.368613
 H         0.794402        -1.052916        -2.239769
 H         2.496657         0.781876        -1.742288
 H         4.958446         0.442489         0.591219
 H         4.441897        -2.473826         0.939226
 H         5.179482        -1.207725         1.942436
 H         2.786433        -0.440204         2.467803
