19
Iteration:  2530
 C         0.428808         0.389975         0.329590
 C         1.417579        -0.670101        -0.223905
 C         1.527097        -1.314272        -1.653139
 C         2.563368        -0.250755        -1.185145
 O         3.920791        -0.548510        -0.882627
 C         4.194682        -0.338118         0.516488
 C         4.424184        -1.478060         1.441281
 C         3.065994        -0.773184         1.420712
 O         2.032342        -1.448059         0.779282
 H         0.350621         0.341369         1.382172
 H         0.845103         1.421444         0.140319
 H        -0.509171         0.210939        -0.204457
 H         1.861046        -2.347000        -1.717167
 H         0.845010        -0.974110        -2.430013
 H         2.289210         0.743824        -1.508992
 H         4.850247         0.438130         0.519540
 H         4.372687        -2.435958         0.941057
 H         5.112111        -1.455067         2.221908
 H         2.712339        -0.217340         2.273524
