19
Iteration:  3118charge 0 multiplicity 1
 C         0.260109         0.247557         0.123739
 C         1.467916        -0.667346        -0.140119
 C         1.586393        -1.215011        -1.592613
 C         2.543683        -0.136480        -1.103577
 O         3.827553        -0.599891        -0.914416
 C         4.279721        -0.359316         0.488707
 C         4.447876        -1.658760         1.337222
 C         3.198573        -0.687278         1.453313
 O         2.001430        -1.366229         0.924779
 H         0.231026         0.490055         1.156435
 H         0.526905         1.327820        -0.257358
 H        -0.629871        -0.165936        -0.357334
 H         1.914729        -2.281382        -1.655390
 H         0.943818        -0.935322        -2.393489
 H         2.442020         0.933407        -1.415377
 H         4.874154         0.520849         0.669495
 H         4.125975        -2.507368         0.725675
 H         5.293414        -1.513202         1.957005
 H         3.040647        -0.124108         2.327162
