19
Iteration:  4027charge 0 multiplicity 1
 C         0.287329         0.261567         0.242206
 C         1.423747        -0.605877        -0.209664
 C         1.567168        -1.114978        -1.646091
 C         2.594338        -0.011933        -1.069358
 O         3.846152        -0.749948        -0.893671
 C         4.254043        -0.416247         0.441142
 C         4.440756        -1.615290         1.443245
 C         3.152101        -0.741852         1.416370
 O         2.011017        -1.406998         0.825956
 H         0.081696         1.154238        -0.425282
 H        -0.699631        -0.437064         0.096916
 H         0.491257         0.678778         1.261135
 H         2.121515        -2.026164        -1.879719
 H         0.920793        -1.039544        -2.436026
 H         2.540028         1.031413        -1.436351
 H         4.969355         0.500399         0.581058
 H         4.534250        -2.568645         1.075695
 H         4.987176        -1.235646         2.270731
 H         3.141003        -0.048735         2.278202
