19
Iteration:  2045charge 0 multiplicity 1
 C         0.359788         0.324936         0.031392
 C         1.502074        -0.561183        -0.198533
 C         1.641477        -1.299083        -1.526178
 C         2.543312        -0.100315        -1.125926
 O         3.838204        -0.425820        -0.829035
 C         4.187260        -0.364622         0.502609
 C         4.492110        -1.693096         1.235505
 C         3.161130        -0.908114         1.522088
 O         1.900497        -1.389916         0.922829
 H         0.725581         1.298582         0.379275
 H        -0.203776         0.554184        -0.823474
 H        -0.426894        -0.137908         0.655453
 H         2.214903        -2.242833        -1.475498
 H         0.830528        -1.282362        -2.274816
 H         2.540444         0.924372        -1.485062
 H         4.815493         0.464882         0.700567
 H         4.314282        -2.494293         0.572970
 H         5.034196        -1.728618         2.120178
 H         3.125208        -0.510668         2.560961
