19
Iteration:   722charge 0 multiplicity 1
 C         0.218035         0.218285         0.035488
 C         1.511664        -0.587377        -0.133611
 C         1.666988        -1.252735        -1.480069
 C         2.595556        -0.105639        -1.124688
 O         3.915661        -0.442213        -0.850193
 C         4.251455        -0.410422         0.509308
 C         4.378993        -1.665815         1.135069
 C         3.182568        -0.834660         1.447856
 O         1.954259        -1.329976         0.989268
 H         0.348692         1.288226         0.248226
 H        -0.323952         0.373180        -0.880598
 H        -0.475190        -0.247690         0.821226
 H         2.149870        -2.247566        -1.604044
 H         0.736720        -1.209004        -2.078902
 H         2.402655         0.933041        -1.504999
 H         4.694041         0.406941         0.848788
 H         4.019606        -2.628706         0.717645
 H         5.194930        -1.804287         1.880904
 H         3.115541        -0.270493         2.378465
