19
Iteration:   695
 C         0.156812         0.199482         0.109060
 C         1.472123        -0.522974        -0.193955
 C         1.683588        -1.306390        -1.565217
 C         2.522783        -0.107491        -1.160851
 O         3.861574        -0.456525        -0.857506
 C         4.307585        -0.439956         0.517725
 C         4.418088        -1.718109         1.269334
 C         3.251255        -0.916635         1.478838
 O         1.972974        -1.177018         0.956682
 H         0.255763         1.106068         0.771635
 H        -0.326997         0.568564        -0.857673
 H        -0.515725        -0.521156         0.506042
 H         2.099533        -2.279275        -1.789930
 H         0.903961        -1.119836        -2.319542
 H         2.352635         0.833907        -1.672789
 H         4.890630         0.571221         0.812051
 H         4.317788        -2.571929         0.607104
 H         5.150946        -1.606415         2.080453
 H         3.212723        -0.518329         2.541222
