19
Iteration:  4631charge 0 multiplicity 1
 C         0.331347         0.451666         0.133122
 C         1.495928        -0.599916        -0.138547
 C         1.573941        -1.236651        -1.564627
 C         2.523097        -0.218566        -1.154449
 O         3.935718        -0.549886        -0.847799
 C         4.150261        -0.337721         0.496502
 C         4.549369        -1.612756         1.258432
 C         3.112936        -0.900223         1.426743
 O         1.881348        -1.443241         0.935170
 H         0.200074         0.823959        -0.933029
 H        -0.560874        -0.049573         0.656805
 H         0.794106         1.101794         0.843915
 H         2.052634        -2.175701        -1.732854
 H         0.847773        -0.829732        -2.370217
 H         2.538847         0.784408        -1.570751
 H         4.639164         0.550490         0.697254
 H         4.782802        -2.543126         0.729663
 H         5.150510        -1.407077         2.136561
 H         3.071668        -0.349678         2.381889
