19
Iteration:  1961charge 0 multiplicity 1
 C         0.414155         0.319084         0.337782
 C         1.491294        -0.551562        -0.248399
 C         1.583381        -1.121232        -1.713866
 C         2.534358        -0.129648        -1.171080
 O         3.848051        -0.743076        -0.859103
 C         4.162029        -0.364685         0.472268
 C         4.456966        -1.416105         1.475563
 C         3.070939        -0.800900         1.449260
 O         2.015929        -1.576685         0.767881
 H         0.637845         0.627282         1.303716
 H         0.224821         1.144422        -0.310686
 H        -0.567686        -0.356945         0.362616
 H         1.883578        -2.188737        -1.703189
 H         0.934327        -0.745730        -2.540015
 H         2.578593         0.929010        -1.445353
 H         4.661085         0.544960         0.581362
 H         4.700060        -2.424721         1.261289
 H         5.167778        -1.041257         2.157623
 H         2.834718        -0.034483         2.286634
