19
Iteration:    66
 C         0.347285         0.377013         0.289013
 C         1.490041        -0.666530        -0.243890
 C         1.520662        -1.235514        -1.692383
 C         2.517414        -0.236484        -1.255777
 O         3.806080        -0.718541        -0.816455
 C         4.195111        -0.304931         0.485873
 C         4.489741        -1.382776         1.387806
 C         3.123675        -0.837052         1.582051
 O         2.108692        -1.441526         0.802128
 H         0.533594         0.544612         1.329012
 H         0.556292         1.442797        -0.204901
 H        -0.674972         0.136743         0.054424
 H         1.939013        -2.180891        -1.901302
 H         0.759211        -0.822739        -2.370774
 H         2.595530         0.735623        -1.658131
 H         4.556834         0.700541         0.490789
 H         4.325354        -2.338571         1.016330
 H         5.242732        -1.398647         2.146680
 H         2.763146        -0.264398         2.413201
