19
Iteration:  4711charge 0 multiplicity 1
 C         0.345575         0.255675         0.191783
 C         1.536005        -0.603462        -0.197098
 C         1.621625        -1.231765        -1.525180
 C         2.558124        -0.113057        -1.222934
 O         3.909214        -0.405273        -0.914523
 C         4.231788        -0.535078         0.428135
 C         4.311935        -1.682895         1.343886
 C         3.128493        -0.808061         1.467676
 O         1.963867        -1.321546         0.951279
 H        -0.025590         0.846274        -0.708377
 H        -0.496903        -0.407595         0.418389
 H         0.534110         1.117165         0.897124
 H         2.022377        -2.343516        -1.551811
 H         0.882649        -1.005890        -2.231559
 H         2.510466         0.875281        -1.784177
 H         4.925031         0.357844         0.738615
 H         4.198291        -2.730842         1.009140
 H         5.040448        -1.654800         2.151321
 H         3.076413        -0.223816         2.357334
