19
Iteration:   870
 C         0.326920         0.194824         0.272863
 C         1.558179        -0.519930        -0.160424
 C         1.488656        -1.124970        -1.612603
 C         2.622824        -0.166851        -1.153250
 O         3.902630        -0.683915        -0.849496
 C         4.200643        -0.328242         0.483628
 C         4.384951        -1.453861         1.381332
 C         3.116242        -0.778295         1.385816
 O         2.051877        -1.522705         0.808963
 H         0.164790         0.760943         1.314216
 H         0.207837         1.075961        -0.487777
 H        -0.541136        -0.428205         0.227120
 H         1.764385        -2.137382        -1.730949
 H         0.775941        -0.858083        -2.326251
 H         2.639505         0.738693        -1.690388
 H         4.722163         0.750986         0.532186
 H         4.435599        -2.436386         1.014007
 H         4.980251        -1.325301         2.210208
 H         2.644056        -0.145481         2.136676
