19
Iteration:  1508
 C         0.261052         0.331047         0.158480
 C         1.459211        -0.582825        -0.169333
 C         1.651653        -1.331046        -1.454836
 C         2.611694        -0.151715        -1.202437
 O         4.008173        -0.350509        -0.876712
 C         4.253092        -0.349778         0.487983
 C         4.338006        -1.714951         1.198525
 C         3.127913        -0.893711         1.422824
 O         1.888756        -1.369663         0.967249
 H         0.385227         1.000235         0.950803
 H        -0.132261         0.865455        -0.821571
 H        -0.616100        -0.338167         0.285005
 H         2.058487        -2.343227        -1.314118
 H         0.902526        -1.384994        -2.246753
 H         2.375245         0.766794        -1.777929
 H         4.937940         0.496226         0.857804
 H         4.547451        -2.565373         0.580992
 H         4.989091        -1.788304         2.075310
 H         3.209621        -0.289872         2.389731
