19
Iteration:  3927charge 0 multiplicity 1
 C         0.431940         0.354577         0.147609
 C         1.548492        -0.560875        -0.158577
 C         1.602249        -1.386625        -1.554778
 C         2.542842        -0.134076        -1.196688
 O         3.909373        -0.375973        -0.844279
 C         4.146362        -0.370344         0.524592
 C         4.316128        -1.698455         1.207565
 C         3.080374        -0.831038         1.516237
 O         1.995165        -1.412941         0.894737
 H        -0.091816         0.707650        -0.760541
 H        -0.128463        -0.225649         0.972800
 H         0.932337         1.288378         0.536894
 H         1.972170        -2.369875        -1.614444
 H         0.914066        -1.086548        -2.220147
 H         2.343640         0.792697        -1.676910
 H         4.847901         0.405579         0.846439
 H         4.075262        -2.620498         0.601986
 H         5.143585        -1.864237         1.891741
 H         2.935706        -0.305719         2.504367
