19
Iteration:  3606
 C         0.416976         0.379396         0.144225
 C         1.559975        -0.619691        -0.165828
 C         1.570370        -1.153331        -1.600655
 C         2.539365        -0.112956        -1.154780
 O         3.853863        -0.521929        -0.954466
 C         4.147824        -0.341178         0.557527
 C         4.507614        -1.626690         1.356630
 C         3.099608        -0.928687         1.453428
 O         1.930426        -1.488127         0.925369
 H         0.109875         0.792564        -0.906270
 H        -0.536452        -0.084897         0.423977
 H         0.960052         1.150067         0.787499
 H         1.862872        -2.189873        -1.528267
 H         0.674354        -1.064466        -2.332116
 H         2.582837         0.950981        -1.539671
 H         4.566818         0.590185         0.700630
 H         4.623963        -2.532813         0.865113
 H         5.137541        -1.548169         2.237698
 H         2.805664        -0.497157         2.390117
