19
Iteration:  2980
 C         0.258073         0.384307         0.218273
 C         1.452682        -0.568679        -0.220391
 C         1.605163        -1.176259        -1.585873
 C         2.624297        -0.187232        -1.150036
 O         3.904668        -0.702552        -0.801342
 C         4.185289        -0.343363         0.482493
 C         4.485024        -1.522679         1.304112
 C         3.123469        -0.821520         1.427346
 O         2.005354        -1.448999         0.824466
 H         0.430631         1.457791         0.410847
 H        -0.606633         0.286711        -0.393917
 H        -0.192711        -0.057694         1.079664
 H         1.883621        -2.338433        -1.578846
 H         0.864507        -0.847363        -2.395772
 H         2.662833         0.889274        -1.415625
 H         4.587777         0.610286         0.771321
 H         4.567049        -2.377396         0.641010
 H         5.102248        -1.524586         2.161247
 H         2.776221        -0.284648         2.355742
