19
Iteration:     8charge 0 multiplicity 1
 C         0.324273         0.310546         0.219167
 C         1.475789        -0.622703        -0.163015
 C         1.595229        -1.232767        -1.545628
 C         2.602724        -0.148616        -1.187741
 O         3.929818        -0.611566        -0.932147
 C         4.158827        -0.327552         0.475526
 C         4.388750        -1.568369         1.338118
 C         3.104850        -0.760093         1.475155
 O         2.031825        -1.424172         0.867834
 H         0.539541         0.927252         1.052409
 H        -0.004294         1.057079        -0.712459
 H        -0.541209        -0.226232         0.541592
 H         1.870918        -2.307303        -1.446034
 H         0.785151        -1.084277        -2.250165
 H         2.343503         0.772074        -1.748098
 H         4.875374         0.453174         0.613322
 H         4.437097        -2.573612         0.800666
 H         5.202985        -1.250316         2.015784
 H         2.742704        -0.432260         2.540025
