19
Iteration:   297charge 0 multiplicity 1
 C         0.341642         0.342933         0.313802
 C         1.471226        -0.643753        -0.116128
 C         1.554589        -1.200513        -1.587923
 C         2.616312        -0.208755        -1.252630
 O         3.888955        -0.708481        -0.939261
 C         4.130164        -0.294624         0.469737
 C         4.410177        -1.433039         1.445001
 C         3.097580        -0.748014         1.428981
 O         2.081787        -1.509994         0.760115
 H         0.524968         0.690152         1.379903
 H         0.211877         1.238674        -0.220822
 H        -0.637465        -0.268413         0.338738
 H         1.909266        -2.240687        -1.616887
 H         0.729658        -0.752467        -2.232979
 H         2.803188         0.846438        -1.569819
 H         4.656648         0.750677         0.638913
 H         4.302215        -2.421575         0.976342
 H         5.161191        -1.452278         2.287729
 H         2.788403        -0.106008         2.185105
