19
Iteration:  2336
 C         0.273341         0.347189         0.003209
 C         1.474091        -0.640210        -0.208253
 C         1.677203        -1.349969        -1.524119
 C         2.501229        -0.090786        -1.100918
 O         3.860119        -0.479249        -0.855259
 C         4.256604        -0.282198         0.527436
 C         4.430331        -1.723057         1.172443
 C         3.208913        -0.925379         1.461712
 O         1.917617        -1.307826         1.064080
 H         0.350133         0.979517         0.994713
 H         0.365384         1.021715        -0.837868
 H        -0.644737        -0.124677         0.028704
 H         2.300693        -2.263442        -1.378921
 H         1.128619        -1.330130        -2.464258
 H         2.322398         0.912793        -1.498077
 H         4.791957         0.586866         0.737794
 H         4.371101        -2.518265         0.482175
 H         5.081366        -1.867425         2.039346
 H         3.063208        -0.256646         2.305251
