19
Iteration:  2462
 C         0.318028         0.350061         0.188067
 C         1.441217        -0.624624        -0.206332
 C         1.567819        -1.158063        -1.665498
 C         2.552130        -0.183739        -1.138132
 O         3.806245        -0.705188        -0.856479
 C         4.222602        -0.343944         0.546154
 C         4.553857        -1.456944         1.396427
 C         3.156306        -0.880574         1.422246
 O         1.982413        -1.445263         0.859091
 H         0.546244         1.048073         0.998003
 H         0.095133         1.135965        -0.630078
 H        -0.642344        -0.305524         0.302504
 H         1.908129        -2.171342        -1.738389
 H         0.957312        -0.665914        -2.373854
 H         2.644498         0.877227        -1.493407
 H         4.827648         0.694937         0.711289
 H         4.724996        -2.405131         0.871410
 H         5.218299        -1.428865         2.289279
 H         2.793071        -0.239330         2.226022
