19
Iteration:  4190charge 0 multiplicity 1
 C         0.280142         0.209703         0.237616
 C         1.529808        -0.556286        -0.220093
 C         1.565712        -1.219893        -1.557123
 C         2.619141        -0.044660        -1.151370
 O         3.915272        -0.517804        -0.968949
 C         4.199194        -0.462394         0.481405
 C         4.346728        -1.690951         1.395108
 C         3.150227        -0.816725         1.426962
 O         1.970360        -1.318334         0.907034
 H         0.075625         0.983128        -0.445472
 H        -0.457621        -0.516199        -0.039656
 H         0.302482         0.621403         1.228600
 H         2.196414        -2.055876        -1.523072
 H         0.871103        -0.909502        -2.352336
 H         2.659552         0.947903        -1.720082
 H         5.106258         0.318880         0.656375
 H         4.131005        -2.727408         1.035282
 H         5.116156        -1.541689         2.075484
 H         2.974617        -0.193009         2.442876
