19
Iteration:   987charge 0 multiplicity 1
 C         0.212444         0.276376         0.090357
 C         1.484917        -0.598515        -0.238556
 C         1.652199        -1.394504        -1.525056
 C         2.549117        -0.192599        -1.173131
 O         3.898069        -0.360175        -0.841675
 C         4.253747        -0.395318         0.575873
 C         4.428462        -1.766653         1.150463
 C         3.191913        -0.884669         1.490865
 O         1.925697        -1.127484         0.964440
 H         0.236594         0.907186         1.043766
 H        -0.146704         0.726937        -0.753214
 H        -0.524717        -0.456602         0.398742
 H         2.188134        -2.312286        -1.448467
 H         0.870931        -1.393198        -2.227456
 H         2.398498         0.870445        -1.477045
 H         5.077610         0.402870         0.636074
 H         4.697000        -2.659359         0.652180
 H         5.110318        -1.752046         1.976979
 H         3.074668        -0.473172         2.504912
