19
Iteration:  3519charge 0 multiplicity 1
 C         0.377519         0.344156         0.255151
 C         1.470543        -0.583597        -0.117349
 C         1.601736        -1.125931        -1.657526
 C         2.542387        -0.150257        -1.105809
 O         3.893879        -0.635307        -0.943214
 C         4.231457        -0.350361         0.409061
 C         4.374454        -1.535205         1.485809
 C         3.095880        -0.820020         1.393255
 O         2.046418        -1.534244         0.827685
 H        -0.099015         0.953058        -0.640367
 H        -0.581073        -0.193870         0.512697
 H         0.512774         0.917079         1.259038
 H         2.187572        -2.063471        -1.777279
 H         0.797608        -0.728293        -2.312596
 H         2.485806         0.848675        -1.645939
 H         4.824475         0.454943         0.722100
 H         4.289314        -2.538406         1.066007
 H         4.994704        -1.599429         2.361583
 H         2.659691        -0.119931         2.066957
