19
Iteration:  3166charge 0 multiplicity 1
 C         0.222707         0.242796         0.236075
 C         1.458355        -0.524599        -0.216152
 C         1.557291        -1.261408        -1.495949
 C         2.574356        -0.210498        -1.196790
 O         3.973016        -0.472723        -0.880490
 C         4.240181        -0.384474         0.452355
 C         4.388756        -1.672257         1.313357
 C         3.166077        -0.799702         1.447093
 O         2.016349        -1.334954         0.873951
 H         0.448593         0.779052         1.182634
 H        -0.006813         1.025298        -0.455295
 H        -0.571866        -0.519964         0.220456
 H         1.829933        -2.313367        -1.360169
 H         0.752171        -1.039238        -2.323368
 H         2.626878         0.656111        -1.863113
 H         4.945972         0.388562         0.760100
 H         4.175968        -2.501585         0.673086
 H         5.085081        -1.551928         2.148808
 H         3.034866        -0.102275         2.359946
