19
Iteration:  2960
 C         0.329920         0.213958         0.131525
 C         1.513056        -0.540260        -0.221482
 C         1.547761        -1.173078        -1.585142
 C         2.554968        -0.084346        -1.184853
 O         3.879832        -0.687358        -0.841487
 C         4.167048        -0.316734         0.509331
 C         4.449675        -1.590572         1.334043
 C         3.193305        -0.872944         1.472451
 O         1.959349        -1.338328         0.935565
 H         0.754310         1.266691         0.383948
 H        -0.320508         0.171690        -0.711157
 H        -0.269522        -0.159408         0.999592
 H         1.976599        -2.192745        -1.798959
 H         0.823114        -0.668329        -2.251973
 H         2.646034         0.826602        -1.750502
 H         4.673093         0.719140         0.497225
 H         4.498488        -2.495991         0.702740
 H         5.132543        -1.599362         2.146679
 H         3.026851        -0.520428         2.530705
