19
Iteration:  2921
 C         0.247456         0.313329         0.129072
 C         1.429628        -0.669993        -0.156378
 C         1.659144        -1.275365        -1.480230
 C         2.534931        -0.077233        -1.147758
 O         3.869183        -0.459839        -0.930209
 C         4.312830        -0.443669         0.428553
 C         4.326991        -1.680842         1.360923
 C         3.178721        -0.783471         1.426361
 O         2.035062        -1.335958         0.925908
 H         0.401314         0.860720         1.041889
 H         0.167887         0.848739        -0.884971
 H        -0.632930        -0.328128         0.422052
 H         2.053176        -2.243786        -1.476524
 H         1.082335        -1.078338        -2.369077
 H         2.384107         0.841417        -1.765638
 H         4.881398         0.486094         0.733048
 H         4.182658        -2.643118         0.773312
 H         5.049586        -1.771651         2.225988
 H         3.125538        -0.255207         2.362553
