19
Iteration:  3313
 C         0.331068         0.317807         0.283421
 C         1.450550        -0.706835        -0.254206
 C         1.564224        -1.101344        -1.684181
 C         2.580223        -0.122762        -1.110961
 O         3.905166        -0.658823        -0.913324
 C         4.219988        -0.365455         0.432462
 C         4.412731        -1.540197         1.365701
 C         3.134414        -0.742274         1.461093
 O         1.988369        -1.490883         0.916204
 H         0.311133         1.128830        -0.462753
 H        -0.529846        -0.219536         0.293714
 H         0.519891         0.721981         1.269894
 H         2.004708        -2.068919        -1.770594
 H         0.827158        -0.857209        -2.501808
 H         2.673126         0.939354        -1.450757
 H         4.748464         0.604566         0.865624
 H         4.191834        -2.495180         0.925570
 H         5.130175        -1.478497         2.233638
 H         2.946752        -0.185249         2.347051
