19
Iteration:  4009
 C         0.348210         0.280877         0.110790
 C         1.501709        -0.598909        -0.151778
 C         1.591267        -1.109039        -1.573954
 C         2.576834        -0.115996        -1.094298
 O         3.775762        -0.660691        -0.839686
 C         4.222656        -0.391420         0.428109
 C         4.462884        -1.575903         1.354216
 C         3.121091        -0.807837         1.489084
 O         2.068415        -1.426623         0.848785
 H         0.159339         1.073024        -0.593522
 H        -0.641932        -0.143400         0.075620
 H         0.336225         0.799291         1.064781
 H         1.872938        -2.133958        -1.813122
 H         0.673406        -0.910160        -2.284221
 H         2.635418         0.944014        -1.499458
 H         4.759382         0.520011         0.593834
 H         4.186112        -2.555708         0.892858
 H         5.295421        -1.578834         2.077138
 H         2.764166        -0.233308         2.316664
