19
Iteration:  2696
 C         0.276692         0.399533         0.087084
 C         1.552930        -0.572164        -0.207685
 C         1.539361        -1.320840        -1.457223
 C         2.618338        -0.148816        -1.140507
 O         3.827956        -0.657329        -0.910824
 C         4.107935        -0.230593         0.464941
 C         4.496804        -1.570985         1.256414
 C         3.194645        -0.858509         1.508766
 O         1.994590        -1.403566         0.935476
 H        -0.621046        -0.148630        -0.264605
 H         0.212575         0.466413         1.163335
 H         0.547399         1.248147        -0.482269
 H         2.136037        -2.245558        -1.329703
 H         0.609478        -1.397761        -2.198750
 H         2.505679         0.848586        -1.676818
 H         4.441812         0.719947         0.631796
 H         4.753195        -2.530226         0.705643
 H         5.210062        -1.436984         2.134598
 H         3.040794        -0.351242         2.500779
