19
Iteration:  3938charge 0 multiplicity 1
 C         0.424577         0.423766         0.240108
 C         1.487534        -0.625362        -0.256987
 C         1.671999        -1.369008        -1.518811
 C         2.554972        -0.150844        -1.183968
 O         3.928590        -0.405320        -0.941634
 C         4.138680        -0.336090         0.593976
 C         4.330286        -1.683718         1.211245
 C         3.131627        -0.896724         1.572461
 O         1.972206        -1.385214         0.829978
 H        -0.264216         0.680008        -0.599756
 H        -0.472776         0.120153         0.880314
 H         0.764543         1.375893         0.707202
 H         2.109623        -2.327086        -1.388749
 H         0.910772        -1.377830        -2.155348
 H         2.401268         0.665693        -1.823985
 H         4.696080         0.542799         0.943126
 H         3.986267        -2.506627         0.535322
 H         5.109518        -1.864780         1.931644
 H         2.913232        -0.427960         2.575353
