19
Iteration:  1723
 C         0.388243         0.250185         0.198328
 C         1.486110        -0.621028        -0.149179
 C         1.628773        -1.138654        -1.553700
 C         2.608972        -0.060244        -1.151524
 O         3.893883        -0.583499        -0.912619
 C         4.179612        -0.368383         0.491487
 C         4.380092        -1.601679         1.400440
 C         3.087706        -0.843971         1.413277
 O         1.961199        -1.446443         0.831662
 H         0.519611         1.132750         0.930941
 H        -0.130445         0.683838        -0.715714
 H        -0.349998        -0.425927         0.424063
 H         2.023013        -2.158068        -1.635456
 H         0.695861        -0.957681        -2.181922
 H         2.492001         0.931067        -1.570459
 H         4.831575         0.559305         0.630667
 H         4.679446        -2.551904         0.927137
 H         5.054906        -1.336867         2.209485
 H         2.827648        -0.225149         2.205093
