19
Iteration:  4417charge 0 multiplicity 1
 C         0.213727         0.197131         0.162630
 C         1.475994        -0.639117        -0.150023
 C         1.598750        -1.152959        -1.608138
 C         2.568574        -0.086306        -1.104242
 O         3.932785        -0.513033        -0.928740
 C         4.282186        -0.477519         0.451113
 C         4.360784        -1.683889         1.363462
 C         3.206809        -0.742570         1.421184
 O         1.971773        -1.367339         0.935588
 H         0.018608         0.864002        -0.725537
 H        -0.644008        -0.251222         0.654580
 H         0.458545         1.099097         0.991305
 H         1.806257        -2.252852        -1.792736
 H         0.811112        -0.929439        -2.360195
 H         2.669069         1.010205        -1.511553
 H         4.983188         0.408540         0.576132
 H         4.189447        -2.664021         0.960666
 H         5.124542        -1.513521         2.124287
 H         3.069277        -0.093051         2.261336
