19
Iteration:  4407charge 0 multiplicity 1
 C         0.208077         0.252027         0.158043
 C         1.518602        -0.590495        -0.172518
 C         1.632973        -1.126678        -1.642642
 C         2.529963        -0.049621        -1.124048
 O         3.879308        -0.609430        -0.918296
 C         4.277267        -0.481343         0.378725
 C         4.412160        -1.612289         1.377420
 C         3.160488        -0.819375         1.423525
 O         1.991530        -1.378498         0.982713
 H        -0.192584         0.730157        -0.766218
 H        -0.585494        -0.475157         0.333506
 H         0.407477         1.026664         1.083313
 H         2.238169        -2.033822        -1.571915
 H         0.771467        -0.842477        -2.247439
 H         2.497117         1.100357        -1.152995
 H         5.098261         0.307582         0.620717
 H         4.260356        -2.625632         1.052228
 H         5.093310        -1.485369         2.211020
 H         3.043499        -0.193561         2.340499
