19
Iteration:  4485
 C         0.421381         0.474997         0.195782
 C         1.485304        -0.653436        -0.223503
 C         1.579562        -1.321479        -1.624658
 C         2.530901        -0.231783        -1.105564
 O         3.928965        -0.448842        -0.858571
 C         4.186618        -0.285296         0.539244
 C         4.502610        -1.623501         1.216957
 C         3.118960        -0.931464         1.434369
 O         1.836774        -1.466222         0.928524
 H         0.155408         0.945668        -0.735553
 H        -0.472160         0.068105         0.724363
 H         0.876142         1.372719         0.872175
 H         1.980694        -2.270614        -1.416268
 H         0.843230        -1.136909        -2.344086
 H         2.489577         0.760205        -1.506145
 H         4.588915         0.754180         0.828396
 H         4.586926        -2.467352         0.528046
 H         5.190307        -1.574380         2.041751
 H         3.038351        -0.381309         2.415557
