19
Iteration:   158charge 0 multiplicity 1
 C         0.266827         0.233840         0.137606
 C         1.459288        -0.556809        -0.188123
 C         1.610313        -1.316411        -1.447945
 C         2.611527        -0.107574        -1.188079
 O         3.960813        -0.475907        -0.982393
 C         4.251824        -0.328561         0.483793
 C         4.294134        -1.686293         1.307191
 C         3.140070        -0.772626         1.419851
 O         1.985483        -1.354259         0.951701
 H         0.567222         1.348501         0.488915
 H        -0.460428         0.240867        -0.535700
 H        -0.185888        -0.336801         1.068727
 H         2.235388        -2.216237        -1.383203
 H         0.838801        -1.529952        -2.237457
 H         2.446092         0.983219        -1.487045
 H         5.095524         0.417447         0.835544
 H         4.135402        -2.459205         0.462800
 H         4.899672        -1.911398         2.257053
 H         3.119704        -0.260935         2.443851
