19
Iteration:  4080charge 0 multiplicity 1
 C         0.390101         0.284900         0.266002
 C         1.527085        -0.520184        -0.201943
 C         1.518493        -1.184277        -1.573794
 C         2.571513        -0.157128        -1.229144
 O         3.887374        -0.627337        -0.805894
 C         4.244130        -0.352424         0.525773
 C         4.344992        -1.567347         1.382225
 C         3.114411        -0.815696         1.445229
 O         2.041444        -1.455327         0.699793
 H        -0.112418         0.874828        -0.519770
 H        -0.428567        -0.197429         0.873440
 H         0.739825         1.027309         1.028562
 H         1.690605        -2.266004        -1.718005
 H         0.726235        -1.025402        -2.237908
 H         2.463159         0.859480        -1.606063
 H         4.813003         0.629153         0.776280
 H         4.201182        -2.451238         0.807528
 H         4.999699        -1.652865         2.252196
 H         2.961752        -0.163020         2.381156
