19
Iteration:  4340charge 0 multiplicity 1
 C         0.409798         0.381200         0.292993
 C         1.440859        -0.622760        -0.219412
 C         1.572861        -1.188548        -1.560099
 C         2.587948        -0.198034        -1.220185
 O         3.938056        -0.521643        -0.867991
 C         4.174878        -0.369525         0.545657
 C         4.451173        -1.585745         1.355345
 C         3.049619        -0.890976         1.382652
 O         1.982323        -1.464551         0.789495
 H         0.098442         1.099364        -0.541513
 H        -0.470006        -0.208918         0.559635
 H         0.753088         0.893664         1.307374
 H         1.823833        -2.298063        -1.453654
 H         0.788651        -0.948143        -2.249418
 H         2.574125         0.873603        -1.526238
 H         4.603960         0.625852         0.658814
 H         4.397664        -2.597489         0.942886
 H         5.018205        -1.249915         2.217686
 H         2.881561        -0.153244         2.129281
