19
Iteration:  3318
 C         0.350916         0.307029         0.222170
 C         1.466728        -0.695636        -0.239776
 C         1.537298        -1.093941        -1.682294
 C         2.576738        -0.110747        -1.103605
 O         3.914144        -0.670583        -0.901221
 C         4.190111        -0.332848         0.460755
 C         4.422128        -1.553751         1.372467
 C         3.170566        -0.759117         1.455358
 O         1.989197        -1.487144         0.920803
 H         0.152791         1.210135        -0.402126
 H        -0.674766        -0.343842         0.375064
 H         0.578601         0.889201         1.162688
 H         2.040712        -2.106360        -1.872319
 H         0.762979        -0.877874        -2.391481
 H         2.570512         0.930692        -1.401733
 H         4.703722         0.543632         0.656473
 H         4.263903        -2.506152         0.831255
 H         5.060643        -1.580560         2.212414
 H         2.954984        -0.204166         2.412577
