19
Iteration:   856charge 0 multiplicity 1
 C         0.366128         0.221899         0.251795
 C         1.471809        -0.670530        -0.207425
 C         1.553880        -1.095686        -1.620627
 C         2.599382        -0.153373        -1.126040
 O         3.864985        -0.737049        -0.886081
 C         4.136766        -0.322463         0.421626
 C         4.485390        -1.424333         1.436532
 C         3.071454        -0.791802         1.487942
 O         2.046884        -1.446516         0.756452
 H         0.532280         0.450339         1.401166
 H         0.321122         1.103806        -0.322014
 H        -0.608167        -0.284986         0.040811
 H         1.683605        -2.190100        -1.741703
 H         0.831315        -0.519375        -2.218188
 H         2.612741         0.922170        -1.402197
 H         4.658822         0.636851         0.566939
 H         4.516404        -2.468549         1.083850
 H         5.145543        -1.132840         2.288117
 H         2.938669        -0.184885         2.363118
