19
Iteration:  3655charge 0 multiplicity 1
 C         0.187924         0.235594         0.229122
 C         1.477866        -0.492564        -0.181088
 C         1.660023        -1.167070        -1.470962
 C         2.573815        -0.042693        -1.182411
 O         3.960488        -0.636116        -0.888368
 C         4.237275        -0.435962         0.454057
 C         4.318453        -1.668918         1.300265
 C         3.176143        -0.827372         1.432194
 O         1.990706        -1.320049         0.860515
 H         0.006219         1.023558        -0.458033
 H        -0.631983        -0.456904        -0.087425
 H         0.283039         0.442179         1.274747
 H         2.199818        -2.118183        -1.417037
 H         1.002251        -1.106539        -2.325227
 H         2.749784         0.871771        -1.677830
 H         4.771160         0.580001         0.875567
 H         4.258731        -2.548260         0.549700
 H         4.965648        -1.960844         2.188293
 H         3.038700        -0.065244         2.267876
