19
Iteration:  1474charge 0 multiplicity 1
 C         0.341671         0.385632         0.148814
 C         1.470454        -0.609643        -0.245013
 C         1.570101        -1.326292        -1.564123
 C         2.500784        -0.174694        -1.246143
 O         3.866491        -0.443264        -0.771239
 C         4.154851        -0.339400         0.567498
 C         4.462874        -1.673928         1.270020
 C         3.197201        -0.917989         1.490139
 O         2.024824        -1.372813         0.872322
 H         0.528898         1.131333         0.908929
 H         0.089712         0.963942        -0.862232
 H        -0.466323        -0.199154         0.558550
 H         1.915315        -2.386557        -1.538690
 H         0.754424        -1.040007        -2.266130
 H         2.462956         0.800070        -1.745189
 H         4.740345         0.665012         0.834494
 H         4.670209        -2.456045         0.512912
 H         5.087997        -1.586134         2.178815
 H         3.018636        -0.388259         2.468894
