19
Iteration:  4503
 C         0.453222         0.391266         0.082901
 C         1.454819        -0.701684        -0.140604
 C         1.519744        -1.217972        -1.547923
 C         2.586256        -0.175508        -1.202236
 O         3.861039        -0.515032        -0.845536
 C         4.122388        -0.311760         0.513685
 C         4.471544        -1.563322         1.249467
 C         3.132296        -0.934833         1.516960
 O         1.977529        -1.453302         0.910830
 H         0.329021         0.949565        -0.858617
 H        -0.439531         0.069220         0.551499
 H         1.022482         1.029311         0.746617
 H         1.894557        -2.256334        -1.753769
 H         0.796622        -0.554534        -2.150987
 H         2.297621         0.890836        -1.558339
 H         4.655137         0.606835         0.851908
 H         4.469928        -2.419326         0.579520
 H         5.080612        -1.542341         2.132152
 H         3.028549        -0.550267         2.470071
