19
Iteration:  4305
 C         0.591984         0.410769         0.282447
 C         1.435741        -0.720315        -0.232413
 C         1.601938        -1.258153        -1.636430
 C         2.539819        -0.195771        -1.250614
 O         3.832318        -0.445285        -0.890789
 C         4.113641        -0.328730         0.598501
 C         4.348831        -1.597897         1.338333
 C         3.069723        -0.822938         1.545514
 O         2.051982        -1.481647         0.759322
 H         0.149956         1.136598        -0.506446
 H        -0.332000         0.043919         0.893320
 H         1.210185         1.076803         0.941588
 H         1.970778        -2.257653        -1.566686
 H         0.759372        -1.100288        -2.352734
 H         2.330635         0.786439        -1.585977
 H         4.584973         0.504383         0.943423
 H         4.345093        -2.620040         0.899785
 H         5.107859        -1.761842         2.114706
 H         2.742076        -0.251810         2.289785
