19
Iteration:   510
 C         0.263536         0.272686         0.201797
 C         1.473737        -0.646320        -0.189681
 C         1.622573        -1.257696        -1.521612
 C         2.611263        -0.083173        -1.167244
 O         3.915800        -0.592596        -0.895336
 C         4.199335        -0.336751         0.506666
 C         4.434766        -1.578265         1.313185
 C         3.111984        -0.801859         1.457866
 O         1.998302        -1.380428         0.879264
 H         0.530025         0.981526         0.979120
 H        -0.024730         0.974725        -0.744485
 H        -0.523111        -0.380531         0.462388
 H         1.919921        -2.320361        -1.625164
 H         0.818842        -0.895520        -2.188925
 H         2.518467         0.787070        -1.796294
 H         4.809869         0.589537         0.547173
 H         4.143796        -2.513034         0.810387
 H         5.285382        -1.780523         1.956963
 H         2.732513        -0.127762         2.366516
