19
Iteration:  2706
 C         0.383684         0.371294         0.073251
 C         1.459663        -0.570928        -0.129985
 C         1.606237        -1.266906        -1.519419
 C         2.518406        -0.191660        -1.139862
 O         3.841410        -0.671600        -0.855121
 C         4.162039        -0.287423         0.455891
 C         4.502370        -1.478039         1.299057
 C         3.138147        -0.868055         1.397200
 O         1.991086        -1.450305         0.960241
 H        -0.505446        -0.191569        -0.247517
 H         0.358197         0.729593         1.114620
 H         0.387642         1.348862        -0.386257
 H         1.891514        -2.366666        -1.433167
 H         0.632652        -1.053146        -2.235119
 H         2.413011         0.831084        -1.662246
 H         4.617792         0.662784         0.579794
 H         4.724399        -2.377857         0.626886
 H         5.341123        -1.207750         2.057967
 H         3.009710        -0.361186         2.393296
