19
Iteration:  4254
 C         0.250196         0.345330         0.203184
 C         1.491690        -0.472075        -0.206418
 C         1.575621        -1.177737        -1.574249
 C         2.634765        -0.076838        -1.187484
 O         3.884414        -0.641446        -0.829320
 C         4.123771        -0.404284         0.486093
 C         4.517516        -1.557829         1.347201
 C         3.136939        -0.978632         1.437649
 O         1.986598        -1.429389         0.846191
 H        -0.158486         0.768470        -0.711125
 H        -0.458235        -0.263068         0.614724
 H         0.322553         1.201187         0.911016
 H         2.003047        -2.180234        -1.659517
 H         0.789058        -0.998965        -2.348342
 H         2.700038         0.900418        -1.736103
 H         4.665972         0.597123         0.774264
 H         4.778745        -2.574826         1.005565
 H         5.258549        -1.524003         2.096054
 H         2.835198        -0.360970         2.430290
