19
Iteration:  1557charge 0 multiplicity 1
 C         0.160164         0.181364         0.015442
 C         1.440447        -0.596403        -0.171485
 C         1.678364        -1.217389        -1.596404
 C         2.523158        -0.078945        -1.126135
 O         3.904185        -0.459866        -0.856668
 C         4.278540        -0.402382         0.461585
 C         4.409862        -1.812094         1.302424
 C         3.264026        -0.813360         1.475533
 O         1.966991        -1.218302         1.015183
 H         0.494630         1.034628         0.744786
 H        -0.210462         0.645598        -0.836902
 H        -0.709277        -0.434718         0.405020
 H         2.117355        -2.229944        -1.762932
 H         0.831735        -0.909124        -2.271412
 H         2.362787         0.925020        -1.516602
 H         4.957033         0.406346         0.715654
 H         4.189056        -2.778413         0.763983
 H         5.173108        -1.963363         2.095510
 H         3.241131        -0.393144         2.519337
