19
Iteration:  3455charge 0 multiplicity 1
 C         0.163088         0.306191         0.098387
 C         1.457665        -0.571280        -0.142469
 C         1.590018        -1.182424        -1.476093
 C         2.617469        -0.161414        -1.125338
 O         3.985828        -0.548645        -0.900260
 C         4.214540        -0.349567         0.550517
 C         4.473324        -1.659070         1.247469
 C         3.172527        -0.885639         1.415195
 O         1.925905        -1.366686         0.900928
 H         0.243271         1.160675        -0.677184
 H        -0.743118        -0.223104         0.093534
 H         0.222455         0.703774         1.152264
 H         2.033388        -2.242951        -1.415873
 H         0.901657        -1.056398        -2.328663
 H         2.477246         0.802566        -1.709888
 H         4.901282         0.568152         0.787144
 H         4.299934        -2.553411         0.651957
 H         5.133455        -1.602227         2.061291
 H         3.119376        -0.301850         2.284306
