19
Iteration:  4930charge 0 multiplicity 1
 C         0.186704         0.179865         0.198438
 C         1.518107        -0.535730        -0.229570
 C         1.622059        -1.094052        -1.611900
 C         2.612146        -0.125626        -1.228579
 O         3.902889        -0.602482        -0.902010
 C         4.263958        -0.549253         0.452566
 C         4.358435        -1.698517         1.436160
 C         3.202101        -0.745434         1.406674
 O         1.961048        -1.244453         0.965772
 H        -0.064187         1.063410        -0.505597
 H        -0.483616        -0.776492         0.343536
 H         0.294760         0.667044         1.206541
 H         1.960977        -2.203405        -1.737752
 H         0.982131        -0.676090        -2.349019
 H         2.596528         0.934771        -1.670926
 H         4.730745         0.354185         0.690978
 H         4.107886        -2.719528         1.072430
 H         5.043878        -1.743546         2.313664
 H         3.286264         0.050212         2.247970
