19
Iteration:  1967
 C         0.437391         0.314709         0.336602
 C         1.480678        -0.598160        -0.251504
 C         1.603375        -1.133542        -1.691317
 C         2.563998        -0.134583        -1.252864
 O         3.820230        -0.738050        -0.890084
 C         4.167910        -0.308842         0.506195
 C         4.407234        -1.424137         1.458880
 C         3.064448        -0.819972         1.451434
 O         2.029467        -1.542236         0.782043
 H         0.610977         0.551656         1.455681
 H         0.164657         1.251869        -0.203702
 H        -0.420524        -0.307525         0.542777
 H         1.945387        -2.173238        -1.626070
 H         0.887625        -0.754379        -2.397503
 H         2.747279         0.931872        -1.488625
 H         4.718392         0.682405         0.666066
 H         4.581657        -2.502943         1.233916
 H         5.173166        -1.151018         2.251798
 H         2.731257        -0.231068         2.312168
