19
Iteration:   478
 C         0.236064         0.206284         0.107634
 C         1.483148        -0.588508        -0.226268
 C         1.658864        -1.321168        -1.519313
 C         2.523310        -0.100623        -1.157217
 O         3.848439        -0.531137        -0.887723
 C         4.265212        -0.306781         0.524470
 C         4.482864        -1.669237         1.273101
 C         3.190468        -0.933088         1.462226
 O         1.950187        -1.189140         0.988502
 H         0.159439         0.713290         1.052312
 H         0.166331         1.154725        -0.714893
 H        -0.719366        -0.267305        -0.001500
 H         1.929593        -2.355940        -1.737032
 H         0.835673        -1.154615        -2.248362
 H         2.502078         0.771951        -1.793956
 H         4.932399         0.515466         0.638797
 H         4.386937        -2.589913         0.685553
 H         5.191670        -1.649988         2.098313
 H         3.196698        -0.477235         2.558308
