19
Iteration:  3542charge 0 multiplicity 1
 C         0.472110         0.246878         0.300277
 C         1.541180        -0.557976        -0.260021
 C         1.437896        -1.222127        -1.628259
 C         2.646506        -0.127244        -1.198155
 O         3.921835        -0.565028        -0.893273
 C         4.142589        -0.415626         0.535574
 C         4.376292        -1.560586         1.429043
 C         3.048774        -0.769492         1.455176
 O         2.035507        -1.456580         0.731543
 H        -0.306969         0.751398        -0.495896
 H        -0.318789        -0.122068         0.951725
 H         0.979697         1.006148         1.024556
 H         1.717316        -2.257402        -1.576713
 H         0.548719        -0.686232        -2.149926
 H         2.477647         0.860865        -1.769700
 H         4.740706         0.427223         0.936451
 H         4.479124        -2.557310         1.203266
 H         5.053184        -1.341119         2.232678
 H         2.771815        -0.295527         2.334165
