19
Iteration:  3203
 C         0.370463         0.339081         0.112461
 C         1.501857        -0.581745        -0.134302
 C         1.580316        -1.250091        -1.610410
 C         2.511212        -0.129988        -1.166494
 O         3.817541        -0.535357        -0.836589
 C         4.137400        -0.391726         0.492408
 C         4.463920        -1.550185         1.256057
 C         3.181944        -0.926568         1.494144
 O         2.017623        -1.423920         0.909418
 H         0.791178         1.379395         0.414633
 H        -0.287704         0.552755        -0.770925
 H        -0.133938         0.035092         1.044553
 H         2.046385        -2.227927        -1.495638
 H         0.913672        -1.097590        -2.367383
 H         2.382570         0.879799        -1.563107
 H         4.550967         0.699383         0.784956
 H         4.529756        -2.606214         0.794400
 H         5.194161        -1.524188         2.061069
 H         3.120440        -0.280480         2.326128
