19
Iteration:  4826charge 0 multiplicity 1
 C         0.513343         0.524703         0.373022
 C         1.433550        -0.651622        -0.249962
 C         1.565792        -1.293875        -1.602826
 C         2.591546        -0.240270        -1.213900
 O         3.926567        -0.537089        -0.875360
 C         4.158320        -0.262649         0.553777
 C         4.293512        -1.559455         1.340855
 C         3.031843        -0.862797         1.462266
 O         2.030432        -1.501586         0.749902
 H         0.321901         1.101300        -0.514610
 H        -0.288369        -0.076207         0.786103
 H         1.306603         0.900505         0.992605
 H         1.871438        -2.399876        -1.455213
 H         0.901685        -1.226235        -2.382944
 H         2.438421         0.650952        -1.712949
 H         4.724743         0.677842         0.766660
 H         4.282791        -2.482943         0.809967
 H         4.918607        -1.429631         2.160445
 H         2.592841        -0.376263         2.312101
