19
Iteration:  4735
 C         0.229251         0.210085         0.123680
 C         1.512684        -0.578106        -0.215574
 C         1.562537        -1.130334        -1.618158
 C         2.565403        -0.105861        -1.153757
 O         3.839049        -0.688609        -0.887503
 C         4.275086        -0.414683         0.546887
 C         4.393848        -1.675265         1.311336
 C         3.187309        -0.741843         1.539079
 O         2.043219        -1.263075         0.903455
 H        -0.262063         0.809025        -0.647614
 H        -0.439075        -0.632973         0.289824
 H         0.258505         1.065139         0.983369
 H         2.189705        -2.001787        -1.770853
 H         0.805349        -0.948724        -2.401804
 H         2.609153         0.990966        -1.427820
 H         5.073132         0.511753         0.695138
 H         4.075166        -2.635234         0.793651
 H         5.231570        -1.906113         2.007895
 H         3.068505        -0.220513         2.541711
