19
Iteration:  4047charge 0 multiplicity 1
 C         0.249938         0.201530         0.318911
 C         1.525503        -0.520164        -0.199043
 C         1.589214        -1.074537        -1.670824
 C         2.610706        -0.156577        -1.248030
 O         3.895323        -0.666439        -0.900771
 C         4.232434        -0.482490         0.444022
 C         4.417485        -1.534051         1.475597
 C         3.136001        -0.795350         1.451670
 O         1.971791        -1.392076         0.829806
 H         0.014839         1.079911        -0.336559
 H        -0.567517        -0.595241         0.366196
 H         0.676926         0.643798         1.233477
 H         1.762641        -2.191223        -1.750678
 H         0.868741        -0.558566        -2.226870
 H         2.536240         0.866556        -1.592851
 H         4.795076         0.493867         0.664760
 H         4.175318        -2.521955         1.102179
 H         5.199829        -1.388009         2.251594
 H         2.969412         0.011997         2.269436
