19
Iteration:  3289
 C         0.361413         0.306514         0.346680
 C         1.549908        -0.580003        -0.260145
 C         1.574744        -1.221608        -1.579057
 C         2.553508        -0.114966        -1.163565
 O         3.869025        -0.601497        -0.923581
 C         4.148564        -0.399394         0.430970
 C         4.371368        -1.575932         1.495350
 C         3.136971        -0.759919         1.400115
 O         2.029611        -1.441555         0.732930
 H         0.362249         1.394784         0.193873
 H        -0.483641        -0.161484         0.129277
 H         0.435973         0.178106         1.443329
 H         1.983295        -2.182449        -1.614505
 H         0.815114        -0.992126        -2.266586
 H         2.523055         0.820678        -1.685170
 H         4.866007         0.410271         0.744435
 H         4.382192        -2.630231         1.110558
 H         4.972583        -1.288247         2.395292
 H         2.846520        -0.148212         2.261693
