19
Iteration:  3395charge 0 multiplicity 1
 C         0.410368         0.279990         0.124978
 C         1.519389        -0.594808        -0.231757
 C         1.613643        -1.286920        -1.542487
 C         2.598497        -0.192357        -1.180430
 O         3.914422        -0.341130        -0.875314
 C         4.205389        -0.387318         0.527843
 C         4.303249        -1.679868         1.215414
 C         3.147320        -0.842176         1.502370
 O         1.926290        -1.379975         0.933924
 H        -0.472287         0.511784        -0.464013
 H        -0.170882        -0.257961         1.027490
 H         0.742555         1.288673         0.520246
 H         2.002765        -2.246547        -1.409968
 H         0.837127        -1.086692        -2.288120
 H         2.396324         0.784057        -1.546039
 H         4.906922         0.228739         0.943513
 H         4.117594        -2.572181         0.640892
 H         5.158542        -1.849563         1.930912
 H         2.896102        -0.241891         2.432326
