19
Iteration:  1063
 C         0.225099         0.284082         0.157864
 C         1.457035        -0.560640        -0.220689
 C         1.584797        -1.259708        -1.664213
 C         2.531095        -0.116939        -1.199985
 O         3.887386        -0.561860        -0.885126
 C         4.216746        -0.408555         0.545391
 C         4.523570        -1.629271         1.409679
 C         3.187211        -0.804019         1.485216
 O         2.010516        -1.354951         0.867624
 H         0.523192         0.944903         1.068453
 H        -0.196119         0.853140        -0.638911
 H        -0.671927        -0.329051         0.486108
 H         1.985816        -2.244328        -1.700583
 H         0.673525        -1.045655        -2.173923
 H         2.545454         0.969679        -1.601241
 H         4.792387         0.552491         0.747322
 H         4.463763        -2.594220         0.929081
 H         5.241345        -1.565815         2.205603
 H         3.011092        -0.359585         2.513683
