19
Iteration:  2855charge 0 multiplicity 1
 C         0.333717         0.366905         0.118462
 C         1.410187        -0.635343        -0.233550
 C         1.553438        -1.359807        -1.493827
 C         2.530918        -0.160788        -1.100679
 O         3.902709        -0.549728        -0.844554
 C         4.247459        -0.346154         0.531661
 C         4.519920        -1.619962         1.226225
 C         3.179318        -0.856471         1.421387
 O         1.954274        -1.298729         0.912817
 H        -0.155074         0.472089         1.077420
 H         0.499296         1.463697        -0.167962
 H        -0.601677         0.012083        -0.405744
 H         2.071829        -2.249589        -1.491595
 H         0.913246        -1.365477        -2.341370
 H         2.433608         0.821910        -1.581480
 H         4.658899         0.708565         0.861296
 H         4.445490        -2.562647         0.575700
 H         5.201790        -1.462931         2.101790
 H         2.961945        -0.352102         2.365504
