19
Iteration:  1241
 C         0.158208         0.154959         0.058589
 C         1.480703        -0.613819        -0.143297
 C         1.669083        -1.215431        -1.475228
 C         2.581495        -0.112015        -1.112131
 O         3.937034        -0.477733        -0.900312
 C         4.277200        -0.362167         0.476738
 C         4.329673        -1.730773         1.195556
 C         3.195488        -0.743699         1.474235
 O         1.999758        -1.306737         0.967074
 H         0.109710         1.046282         0.762308
 H        -0.024474         0.706777        -0.849106
 H        -0.613987        -0.387027         0.370611
 H         2.267705        -2.134407        -1.533104
 H         0.827450        -1.235170        -2.202232
 H         2.373002         0.954906        -1.367918
 H         5.122682         0.419514         0.733834
 H         3.847424        -2.592222         0.717248
 H         5.119523        -1.953376         1.915706
 H         3.123777        -0.220416         2.413023
