19
Iteration:  3078charge 0 multiplicity 1
 C         0.359388         0.344681         0.188447
 C         1.467317        -0.528285        -0.203136
 C         1.583750        -1.205949        -1.529098
 C         2.575585        -0.193475        -1.254987
 O         3.826847        -0.649139        -0.858916
 C         4.141926        -0.353125         0.499261
 C         4.582604        -1.476736         1.329166
 C         3.142800        -0.903393         1.500203
 O         1.969972        -1.425829         0.828647
 H         0.372490         0.701275         1.228952
 H         0.188004         1.133553        -0.541047
 H        -0.631732        -0.124498         0.106152
 H         1.929347        -2.309735        -1.430865
 H         0.729174        -1.024731        -2.344115
 H         2.399511         0.880098        -1.545410
 H         4.598764         0.611178         0.729803
 H         4.720425        -2.481796         0.902965
 H         5.253820        -1.396515         2.202182
 H         2.890157        -0.427004         2.531890
