19
Iteration:  1246
 C         0.176546         0.170692         0.071231
 C         1.525637        -0.575915        -0.152832
 C         1.671099        -1.295861        -1.501889
 C         2.570103        -0.081703        -1.121724
 O         3.916848        -0.451394        -0.873922
 C         4.264689        -0.358402         0.468461
 C         4.283705        -1.714183         1.189119
 C         3.243042        -0.796289         1.462902
 O         1.997653        -1.285794         0.991422
 H         0.345653         0.903235         0.856274
 H        -0.191460         0.691370        -0.914293
 H        -0.807544        -0.469505         0.470346
 H         2.254609        -2.196654        -1.658405
 H         0.921750        -1.225444        -2.268052
 H         2.535477         0.958286        -1.400223
 H         5.058773         0.314027         0.597499
 H         3.892316        -2.623465         0.736583
 H         4.982488        -1.866181         2.012621
 H         3.002542        -0.289157         2.428033
