19
Iteration:  4509charge 0 multiplicity 1
 C         0.417962         0.385848         0.099690
 C         1.568835        -0.688820        -0.192332
 C         1.505851        -1.197505        -1.550953
 C         2.553012        -0.165143        -1.215896
 O         3.821832        -0.542607        -0.842099
 C         4.128269        -0.321672         0.543994
 C         4.484802        -1.585679         1.260813
 C         3.139241        -0.894884         1.532942
 O         1.989924        -1.467837         0.868572
 H         0.353419         0.975243        -0.840568
 H        -0.580359         0.087516         0.575668
 H         0.908273         1.132154         0.822619
 H         1.873144        -2.225657        -1.749372
 H         0.666741        -0.772027        -2.056744
 H         2.530070         0.884797        -1.357538
 H         4.502145         0.662346         0.785663
 H         4.421685        -2.504316         0.665134
 H         5.159832        -1.582696         2.159666
 H         3.038052        -0.313596         2.550144
