19
Iteration:  4262
 C         0.287083         0.353374         0.201246
 C         1.502041        -0.469566        -0.169158
 C         1.546531        -1.173801        -1.554330
 C         2.589499        -0.144121        -1.220310
 O         3.967873        -0.614607        -0.846490
 C         4.084459        -0.378296         0.535573
 C         4.534865        -1.590814         1.349176
 C         3.106364        -0.928832         1.437187
 O         1.956500        -1.459079         0.815950
 H        -0.278531         0.816923        -0.706294
 H        -0.475868        -0.329710         0.712778
 H         0.662199         1.219629         0.851517
 H         2.075828        -2.085954        -1.532113
 H         0.880072        -0.834809        -2.385174
 H         2.627334         0.800082        -1.702617
 H         4.420296         0.588718         0.648644
 H         4.692501        -2.565503         0.778974
 H         5.237181        -1.355725         2.211425
 H         2.997581        -0.524234         2.377522
