19
Iteration:  2802
 C         0.374074         0.298370         0.226286
 C         1.474327        -0.632402        -0.226194
 C         1.546350        -1.238329        -1.615902
 C         2.539783        -0.198367        -1.155449
 O         3.858493        -0.643062        -0.854350
 C         4.182424        -0.347652         0.441149
 C         4.482208        -1.533611         1.446526
 C         3.182691        -0.750084         1.409096
 O         1.986688        -1.363847         0.839410
 H         0.152578        -0.195071         1.154377
 H         0.761994         1.383682         0.156508
 H        -0.646942         0.319349        -0.224407
 H         1.670616        -2.303920        -1.729930
 H         0.711786        -0.769308        -2.293136
 H         2.390243         0.789485        -1.701555
 H         4.904217         0.512978         0.715155
 H         4.438683        -2.607846         0.966367
 H         5.296213        -1.291383         2.231224
 H         2.855078        -0.334173         2.374350
