19
Iteration:  1617charge 0 multiplicity 1
 C         0.365179         0.275618         0.237742
 C         1.515652        -0.582959        -0.274933
 C         1.525778        -1.237301        -1.709870
 C         2.493174        -0.148594        -1.161796
 O         3.906946        -0.581146        -0.786030
 C         4.206355        -0.366749         0.594245
 C         4.437960        -1.621684         1.363122
 C         3.112338        -0.778803         1.461320
 O         2.009224        -1.393501         0.802000
 H         0.690841         0.848883         1.069633
 H         0.055526         0.998011        -0.615794
 H        -0.467786        -0.284682         0.662064
 H         2.045038        -2.153517        -1.693397
 H         0.757056        -1.080140        -2.421486
 H         2.539083         0.940690        -1.293551
 H         4.785061         0.638125         0.597690
 H         4.415786        -2.393672         0.610283
 H         5.239388        -1.546080         2.042476
 H         2.842164        -0.280048         2.387271
