19
Iteration:  1601
 C         0.246639         0.241863         0.173016
 C         1.476580        -0.566614        -0.210707
 C         1.670674        -1.168478        -1.561706
 C         2.609008        -0.082673        -1.186102
 O         3.832784        -0.616949        -0.838852
 C         4.191376        -0.356181         0.518194
 C         4.410000        -1.615445         1.279025
 C         3.186066        -0.852861         1.530723
 O         2.014065        -1.348643         0.848197
 H         0.474565         1.065875         0.969963
 H        -0.216034         0.717970        -0.660832
 H        -0.547073        -0.454239         0.550161
 H         2.038428        -2.231577        -1.737861
 H         0.953726        -0.892912        -2.386865
 H         2.611419         0.775271        -1.850740
 H         4.755794         0.526489         0.803762
 H         4.273550        -2.599829         0.786407
 H         5.118733        -1.783335         2.130127
 H         2.943767        -0.295825         2.457593
