19
Iteration:  4880charge 0 multiplicity 1
 C         0.335608         0.444577         0.174029
 C         1.518090        -0.606725        -0.141979
 C         1.579815        -1.209751        -1.649601
 C         2.545171        -0.189823        -1.135004
 O         3.861218        -0.654519        -0.806487
 C         4.191579        -0.298136         0.562464
 C         4.444270        -1.575881         1.341185
 C         3.133264        -0.870584         1.436002
 O         1.974948        -1.481198         0.818804
 H         0.198716         0.900816        -0.808813
 H        -0.529841         0.047825         0.701821
 H         0.860416         1.381870         0.599044
 H         1.877148        -2.230731        -1.988790
 H         0.765296        -0.746637        -2.166760
 H         2.575019         0.679671        -1.716309
 H         4.835655         0.714064         0.704899
 H         4.507397        -2.414479         0.670473
 H         5.124376        -1.630274         2.136490
 H         2.869250        -0.294680         2.350392
