19
Iteration:  4332
 C         0.480505         0.405296         0.290600
 C         1.512574        -0.606096        -0.185085
 C         1.563939        -1.256087        -1.563405
 C         2.573047        -0.159054        -1.221659
 O         3.885737        -0.479130        -0.889705
 C         4.146086        -0.387403         0.495522
 C         4.366211        -1.585810         1.349249
 C         3.067327        -0.870991         1.414955
 O         1.981136        -1.521864         0.774625
 H         0.111290         1.144578        -0.377705
 H        -0.372540        -0.166853         0.555761
 H         0.904755         0.991535         1.180544
 H         2.205574        -2.172079        -1.455352
 H         0.812832        -1.102707        -2.333611
 H         2.460718         0.869767        -1.723956
 H         4.653577         0.618289         0.935972
 H         4.583591        -2.621496         1.172936
 H         4.939670        -1.308229         2.246446
 H         2.750665        -0.150911         2.386075
