19
Iteration:  1631
 C         0.472194         0.336811         0.254197
 C         1.423348        -0.702755        -0.246904
 C         1.543903        -1.187401        -1.632502
 C         2.588643        -0.150361        -1.186574
 O         3.890645        -0.535352        -0.840463
 C         4.205592        -0.285597         0.509712
 C         4.427460        -1.539705         1.394906
 C         3.106419        -0.849684         1.451093
 O         1.963915        -1.501675         0.779717
 H         0.912230         0.796762         1.091084
 H         0.159962         1.085241        -0.411063
 H        -0.469249        -0.258940         0.562673
 H         1.837361        -2.226344        -1.748803
 H         0.791813        -0.791392        -2.302095
 H         2.432774         0.820770        -1.695308
 H         4.722680         0.507109         0.846025
 H         4.369305        -2.577314         1.063464
 H         4.965369        -1.421579         2.335380
 H         2.833701        -0.231046         2.415240
