19
Iteration:  2385charge 0 multiplicity 1
 C         0.234402         0.264605         0.165460
 C         1.478890        -0.543844        -0.208962
 C         1.661442        -1.361078        -1.488537
 C         2.532241        -0.216520        -1.231768
 O         3.983751        -0.251496        -0.840576
 C         4.285249        -0.464218         0.488597
 C         4.330999        -1.787431         1.313251
 C         3.190926        -0.759102         1.469683
 O         1.931089        -1.315238         0.838455
 H         0.505408         1.215086         0.687699
 H        -0.377310         0.571620        -0.752187
 H        -0.160333        -0.342025         1.083702
 H         2.015640        -2.401234        -1.324077
 H         0.866024        -1.262029        -2.228999
 H         2.485028         0.690170        -1.872136
 H         4.911748         0.530057         0.812381
 H         4.058646        -2.703022         0.656719
 H         5.027625        -1.988190         2.173756
 H         2.903068        -0.246581         2.420579
