19
Iteration:  1279charge 0 multiplicity 1
 C         0.222489         0.251426         0.166355
 C         1.464446        -0.597712        -0.200280
 C         1.632254        -1.376864        -1.562754
 C         2.594691        -0.128597        -1.282103
 O         3.952062        -0.333934        -0.863053
 C         4.183740        -0.381948         0.529716
 C         4.495902        -1.751535         1.212303
 C         3.168063        -0.929287         1.506934
 O         1.885534        -1.201994         0.975789
 H         0.707485         1.005071         0.738784
 H        -0.230573         0.709841        -0.800249
 H        -0.601589        -0.460439         0.780572
 H         2.231084        -2.253261        -1.311072
 H         0.951635        -1.349386        -2.396360
 H         2.486796         0.908911        -1.611332
 H         4.847533         0.371415         0.852380
 H         4.121296        -2.658983         0.747200
 H         5.311682        -1.805288         1.948155
 H         3.071076        -0.333841         2.525296
