19
Iteration:  3073charge 0 multiplicity 1
 C         0.366875         0.359584         0.211272
 C         1.466806        -0.541527        -0.174146
 C         1.584348        -1.228064        -1.571081
 C         2.575736        -0.192118        -1.231598
 O         3.824305        -0.633819        -0.840147
 C         4.133117        -0.351672         0.488672
 C         4.599209        -1.479990         1.336315
 C         3.111550        -0.930710         1.502235
 O         1.974086        -1.411678         0.810685
 H         0.545165         0.810944         1.200667
 H         0.142529         1.234098        -0.490031
 H        -0.550023        -0.269150         0.186563
 H         1.912392        -2.223582        -1.502095
 H         0.892850        -1.166365        -2.317219
 H         2.429039         0.790502        -1.661411
 H         4.554368         0.671434         0.537423
 H         4.566035        -2.458718         0.862061
 H         5.144626        -1.358986         2.265021
 H         2.975467        -0.361613         2.367646
