19
Iteration:  1463
 C         0.409168         0.312161         0.136713
 C         1.524110        -0.560820        -0.161616
 C         1.544097        -1.258539        -1.562112
 C         2.483371        -0.135155        -1.230565
 O         3.856487        -0.539948        -0.820396
 C         4.198162        -0.283107         0.560554
 C         4.414063        -1.569787         1.281605
 C         3.123876        -0.913579         1.479505
 O         2.028265        -1.449071         0.870142
 H         0.905968         1.031331         0.787707
 H        -0.037524         0.935785        -0.818750
 H        -0.512133        -0.130475         0.481476
 H         2.149807        -2.192650        -1.642934
 H         0.712532        -1.156154        -2.317311
 H         2.485470         0.773801        -1.836020
 H         4.782399         0.746353         0.845797
 H         4.377581        -2.492012         0.628165
 H         5.093159        -1.627401         2.163993
 H         2.962060        -0.588309         2.585384
