19
Iteration:  4769
 C         0.238460         0.274171         0.117671
 C         1.468014        -0.527652        -0.202882
 C         1.571476        -1.073102        -1.567107
 C         2.632737        -0.101708        -1.130245
 O         3.862697        -0.748621        -0.881599
 C         4.215903        -0.473300         0.453014
 C         4.570945        -1.593649         1.393809
 C         3.172825        -0.816450         1.434701
 O         1.934392        -1.350034         0.894903
 H        -0.253337         0.818770        -0.687891
 H        -0.543347        -0.463315         0.376160
 H         0.066095         0.813069         1.128323
 H         2.047033        -1.966479        -1.732463
 H         0.858709        -0.720509        -2.369421
 H         2.639620         0.955631        -1.434107
 H         4.752969         0.585560         0.722083
 H         4.523054        -2.594370         0.949370
 H         5.254486        -1.378080         2.241533
 H         2.897941        -0.167190         2.323424
