19
Iteration:   213
 C         0.274807         0.259595         0.025052
 C         1.509127        -0.605308        -0.136792
 C         1.616933        -1.323384        -1.464698
 C         2.458813        -0.088112        -1.144114
 O         3.872059        -0.535852        -0.846822
 C         4.229471        -0.310162         0.514986
 C         4.428606        -1.674143         1.239286
 C         3.214058        -0.865433         1.458386
 O         1.987189        -1.271300         0.944874
 H         0.672248         1.176457         0.680822
 H         0.039370         0.612147        -0.929874
 H        -0.674101        -0.233258         0.449079
 H         2.089203        -2.258560        -1.690040
 H         0.671770        -1.201628        -2.039888
 H         2.591744         0.709353        -1.904297
 H         4.813949         0.624286         0.823293
 H         4.315791        -2.384023         0.391822
 H         5.178558        -1.969457         2.043296
 H         3.208929        -0.301068         2.429233
