19
Iteration:  3671charge 0 multiplicity 1
 C         0.166180         0.192458         0.238699
 C         1.524368        -0.467276        -0.202402
 C         1.711653        -1.151927        -1.529598
 C         2.700282        -0.104888        -1.195258
 O         3.937040        -0.558191        -0.959426
 C         4.221266        -0.453637         0.454200
 C         4.391523        -1.730481         1.325499
 C         3.106564        -0.801097         1.461918
 O         1.908767        -1.307878         0.922949
 H        -0.096776         1.223122        -0.214800
 H        -0.628706        -0.553274         0.112042
 H         0.294398         0.596638         1.282980
 H         2.003282        -2.253268        -1.603798
 H         0.843638        -1.144314        -2.267101
 H         2.488357         0.918854        -1.653855
 H         4.890853         0.362570         0.626622
 H         4.063630        -2.634763         0.952839
 H         5.163498        -1.583187         2.019692
 H         3.025954        -0.296517         2.407966
