19
Iteration:  3746
 C         0.395029         0.455646         0.212260
 C         1.481986        -0.603141        -0.203262
 C         1.633183        -1.203124        -1.567579
 C         2.577463        -0.139326        -1.187974
 O         3.931256        -0.567100        -0.846300
 C         4.100322        -0.311213         0.538634
 C         4.546597        -1.600717         1.324652
 C         3.103927        -1.003778         1.436922
 O         1.859542        -1.442470         0.830338
 H        -0.376104         0.644050        -0.526696
 H        -0.194490        -0.072979         0.918722
 H         0.892867         1.319011         0.687653
 H         1.888714        -2.352742        -1.671897
 H         0.843036        -1.167135        -2.367541
 H         2.422192         0.894624        -1.678698
 H         4.489591         0.751936         0.676254
 H         4.804263        -2.388372         0.642856
 H         4.991728        -1.543077         2.262473
 H         2.960852        -0.496616         2.386722
