19
Iteration:   967charge 0 multiplicity 1
 C         0.188932         0.267931         0.019808
 C         1.443571        -0.540451        -0.225765
 C         1.631848        -1.371142        -1.481193
 C         2.492799        -0.127794        -1.190154
 O         3.914937        -0.341629        -0.812278
 C         4.249495        -0.384837         0.554707
 C         4.515392        -1.737680         1.226779
 C         3.255564        -0.943940         1.468166
 O         1.934179        -1.257168         0.977763
 H         0.597846         1.195593         0.617580
 H        -0.265327         0.560982        -0.917096
 H        -0.549577        -0.019097         0.670251
 H         1.989637        -2.344844        -1.287180
 H         0.971953        -1.258457        -2.286973
 H         2.350609         0.536008        -2.025647
 H         4.797440         0.635485         0.840373
 H         4.274780        -2.544293         0.593540
 H         5.238765        -2.002749         1.930089
 H         3.116600        -0.539444         2.475202
