19
Iteration:  4500
 C         0.490703         0.396046         0.087038
 C         1.402391        -0.693959        -0.132837
 C         1.533475        -1.215677        -1.547388
 C         2.576181        -0.174750        -1.181030
 O         3.888672        -0.502951        -0.848748
 C         4.125058        -0.298276         0.516615
 C         4.456945        -1.555976         1.242068
 C         3.135449        -0.955321         1.484170
 O         1.967899        -1.451294         0.934213
 H         0.250267         0.946967        -0.871753
 H        -0.471387         0.035774         0.550666
 H         0.995307         1.019306         0.725177
 H         1.864729        -2.312338        -1.815588
 H         0.843843        -0.647396        -2.253168
 H         2.290748         0.785679        -1.646581
 H         4.692565         0.523992         0.790618
 H         4.518162        -2.415790         0.560862
 H         5.145139        -1.539084         2.139641
 H         2.958994        -0.587243         2.553046
