19
Iteration:  4438charge 0 multiplicity 1
 C         0.332401         0.275360         0.204626
 C         1.539379        -0.564029        -0.228840
 C         1.532347        -1.291612        -1.531651
 C         2.499331        -0.191335        -1.239989
 O         3.935981        -0.427050        -0.850403
 C         4.237670        -0.415962         0.538499
 C         4.352451        -1.689926         1.294209
 C         3.131620        -0.795564         1.480169
 O         2.043811        -1.324566         0.846246
 H        -0.216551         0.850597        -0.591812
 H        -0.285998        -0.469227         0.700242
 H         0.510302         1.059988         1.069616
 H         1.892378        -2.360898        -1.499668
 H         0.793303        -0.960873        -2.324270
 H         2.601008         0.843413        -1.641247
 H         5.003927         0.355671         0.727754
 H         3.898117        -2.479758         0.722983
 H         5.101647        -1.890605         2.062407
 H         2.966372        -0.267686         2.352971
