19
Iteration:  2356charge 0 multiplicity 1
 C         0.320211         0.280814         0.034837
 C         1.505008        -0.602423        -0.159979
 C         1.672320        -1.345158        -1.461527
 C         2.540374        -0.185280        -1.199182
 O         3.928086        -0.320504        -0.843899
 C         4.194443        -0.432644         0.512572
 C         4.384043        -1.740539         1.145880
 C         3.168304        -0.805038         1.572037
 O         1.915955        -1.280271         0.945880
 H         0.683748         0.845267         0.858779
 H         0.064634         0.809614        -0.899048
 H        -0.513785        -0.319097         0.387886
 H         2.019687        -2.392274        -1.551751
 H         0.857171        -1.246459        -2.135790
 H         2.376047         0.792907        -1.711454
 H         4.752854         0.336815         0.795267
 H         4.153623        -2.612042         0.512667
 H         5.156070        -1.695156         1.919978
 H         2.968612        -0.360092         2.580207
