19
Iteration:  1387
 C         0.358301         0.210123         0.380205
 C         1.502792        -0.566295        -0.167042
 C         1.537224        -1.107242        -1.591681
 C         2.651290        -0.146582        -1.223505
 O         3.858243        -0.705502        -0.867969
 C         4.165486        -0.315961         0.448970
 C         4.375011        -1.495045         1.419371
 C         3.092649        -0.763928         1.430161
 O         2.112926        -1.471330         0.739117
 H         0.375460         0.846094         1.227748
 H        -0.081819         0.792820        -0.570658
 H        -0.573397        -0.351067         0.348715
 H         1.693515        -2.162806        -1.829908
 H         0.860345        -0.812712        -2.421659
 H         2.830111         0.749094        -1.819819
 H         4.676175         0.689562         0.598989
 H         4.179188        -2.583848         1.257891
 H         5.045048        -1.458498         2.291933
 H         2.710920        -0.095107         2.336648
