19
Iteration:  3027charge 0 multiplicity 1
 C         0.548920         0.320232         0.293219
 C         1.553018        -0.622809        -0.239148
 C         1.479638        -1.264445        -1.615144
 C         2.569442        -0.181864        -1.189390
 O         3.925968        -0.511502        -0.917257
 C         4.110070        -0.329000         0.477263
 C         4.311312        -1.538205         1.439483
 C         3.043315        -0.753658         1.485136
 O         2.052672        -1.545742         0.806351
 H         1.057188         1.320287         0.512382
 H        -0.250745         0.567618        -0.374857
 H        -0.059828        -0.056546         1.163090
 H         1.753879        -2.239541        -1.832616
 H         0.722854        -0.932484        -2.309423
 H         2.405689         0.687858        -1.762836
 H         4.710049         0.583837         0.874683
 H         4.155325        -2.524947         0.988112
 H         5.197865        -1.431118         2.111215
 H         2.703511        -0.057351         2.302192
