19
Iteration:  4471charge 0 multiplicity 1
 C         0.388095         0.441449         0.211123
 C         1.435639        -0.533186        -0.166452
 C         1.670273        -1.369691        -1.486182
 C         2.574099        -0.189428        -1.232571
 O         3.903764        -0.440802        -0.840712
 C         4.133071        -0.382871         0.527160
 C         4.477705        -1.602923         1.238800
 C         3.126274        -0.953137         1.423938
 O         1.908120        -1.386815         0.845226
 H        -0.197161         1.053716        -0.493813
 H        -0.358169        -0.059583         0.797582
 H         0.983812         1.113014         0.974578
 H         1.981220        -2.419602        -1.510742
 H         1.024048        -1.413332        -2.426923
 H         2.268763         0.828650        -1.700818
 H         4.652767         0.573984         0.855394
 H         4.413250        -2.453890         0.577028
 H         5.112540        -1.822289         2.070110
 H         2.904308        -0.506042         2.313291
