19
Iteration:  2392
 C         0.224597         0.257356         0.188565
 C         1.447979        -0.569049        -0.237514
 C         1.675084        -1.372615        -1.468406
 C         2.539596        -0.182878        -1.221049
 O         3.967052        -0.298775        -0.845952
 C         4.322969        -0.462211         0.535917
 C         4.336702        -1.775664         1.266579
 C         3.128473        -0.767851         1.465359
 O         1.970513        -1.298616         0.821564
 H         0.622000         1.306581         0.495296
 H        -0.558763         0.552272        -0.469970
 H        -0.349861        -0.206812         0.952014
 H         2.098839        -2.335158        -1.267389
 H         0.964671        -1.100838        -2.328890
 H         2.349578         0.730984        -1.731404
 H         5.008338         0.368552         0.896240
 H         4.258691        -2.737991         0.835475
 H         4.963948        -1.903076         2.115448
 H         2.979123        -0.060595         2.255170
