19
Iteration:  4974charge 0 multiplicity 1
 C         0.285078         0.304532         0.100753
 C         1.480407        -0.477932        -0.207351
 C         1.625276        -1.225095        -1.501175
 C         2.564957        -0.104003        -1.148362
 O         3.853784        -0.541338        -0.862944
 C         4.188778        -0.393263         0.486977
 C         4.361964        -1.783776         1.327847
 C         3.231062        -0.810406         1.442507
 O         2.030833        -1.342325         0.912680
 H         0.196020         1.014851        -0.758770
 H        -0.584103        -0.421627         0.248056
 H         0.534664         0.939949         1.004378
 H         2.051262        -2.263796        -1.370793
 H         0.901705        -1.197967        -2.243288
 H         2.534966         0.817984        -1.791556
 H         4.798469         0.441712         0.710626
 H         4.109021        -2.667629         0.729898
 H         5.056971        -1.893675         2.142843
 H         2.837803        -0.175279         2.240680
