19
Iteration:  2636charge 0 multiplicity 1
 C         0.291040         0.201865         0.166026
 C         1.537809        -0.581264        -0.153735
 C         1.638887        -1.338291        -1.457986
 C         2.549898        -0.138472        -1.222106
 O         3.898683        -0.447659        -1.010714
 C         4.257067        -0.431670         0.519555
 C         4.305353        -1.726408         1.326164
 C         3.162225        -0.653686         1.468338
 O         1.987669        -1.321063         0.939657
 H        -0.626611        -0.354838         0.069438
 H         0.252310         0.739228         1.112638
 H         0.085908         1.134377        -0.408046
 H         2.092778        -2.245870        -1.316935
 H         0.826330        -1.284884        -2.051159
 H         2.485195         0.658546        -1.894043
 H         4.962459         0.513147         0.614685
 H         4.140042        -2.649559         0.846238
 H         5.160433        -1.659507         1.876462
 H         2.973717         0.040246         2.251681
