19
Iteration:  2649
 C         0.243526         0.266456         0.164412
 C         1.440730        -0.616040        -0.174814
 C         1.568814        -1.366245        -1.483366
 C         2.524217        -0.205698        -1.219657
 O         3.996365        -0.427710        -0.934650
 C         4.284105        -0.419733         0.421557
 C         4.350999        -1.628714         1.333029
 C         3.175387        -0.737843         1.452709
 O         2.012615        -1.265692         0.948053
 H        -0.604186        -0.305929        -0.007746
 H         0.346406         0.350400         1.245357
 H         0.371517         1.150325        -0.428907
 H         2.060977        -2.382559        -1.538645
 H         0.819097        -1.202201        -2.236217
 H         2.261399         0.754805        -1.638716
 H         4.971836         0.325644         0.831577
 H         3.936376        -2.526014         0.886362
 H         5.052180        -1.885209         2.133240
 H         3.031471        -0.108610         2.329777
