19
Iteration:   755
 C         0.306464         0.315362         0.150182
 C         1.479058        -0.646280        -0.273899
 C         1.655776        -1.303909        -1.578174
 C         2.501982        -0.127883        -1.228856
 O         3.885531        -0.392841        -0.829868
 C         4.240685        -0.396221         0.532841
 C         4.451181        -1.656677         1.274218
 C         3.164646        -0.860910         1.472085
 O         1.950291        -1.355111         0.932449
 H         0.742084         1.195411         0.579657
 H        -0.347214         0.544204        -0.667410
 H        -0.347537        -0.103028         1.016014
 H         2.174451        -2.268414        -1.353757
 H         0.784386        -1.295933        -2.287997
 H         2.271645         0.905482        -1.604592
 H         4.645938         0.446449         0.869507
 H         4.188575        -2.668159         0.876816
 H         5.259060        -1.775282         2.070439
 H         3.097930        -0.317146         2.395340
