19
Iteration:  4184
 C         0.281695         0.240103         0.230086
 C         1.512963        -0.536356        -0.232789
 C         1.585646        -1.244671        -1.535632
 C         2.609269        -0.043964        -1.170870
 O         3.919976        -0.509026        -0.915075
 C         4.223608        -0.461417         0.515148
 C         4.344813        -1.704852         1.344187
 C         3.144027        -0.843646         1.427336
 O         1.987198        -1.298419         0.851816
 H         0.045935         1.126760        -0.467437
 H        -0.658653        -0.496263         0.190765
 H         0.190399         0.631791         1.279900
 H         2.180827        -2.219926        -1.471971
 H         0.785073        -1.115315        -2.253131
 H         2.522078         0.913796        -1.635935
 H         4.839842         0.352360         0.620270
 H         4.398865        -2.772245         1.182854
 H         5.132190        -1.627883         2.176105
 H         3.065216        -0.158885         2.175440
