19
Iteration:   605charge 0 multiplicity 1
 C         0.416172         0.371611         0.296661
 C         1.460519        -0.634204        -0.222300
 C         1.553890        -1.219767        -1.655010
 C         2.560043        -0.177100        -1.242547
 O         3.874855        -0.621477        -0.873945
 C         4.079906        -0.287234         0.529247
 C         4.460682        -1.480939         1.407339
 C         3.112630        -0.855236         1.456873
 O         2.028449        -1.502779         0.793931
 H         0.735998         1.090655         1.172470
 H         0.142231         1.046527        -0.419813
 H        -0.524464        -0.229265         0.595168
 H         1.867824        -2.283857        -1.619236
 H         0.788135        -0.945999        -2.419508
 H         2.635939         0.835786        -1.630927
 H         4.782645         0.601047         0.791526
 H         4.797571        -2.452136         1.012828
 H         5.093806        -1.255819         2.282473
 H         2.936785        -0.460925         2.383649
