19
Iteration:  3457charge 0 multiplicity 1
 C         0.157136         0.314243         0.100331
 C         1.456137        -0.581690        -0.143611
 C         1.592747        -1.164778        -1.471880
 C         2.623936        -0.167135        -1.149125
 O         3.981979        -0.555992        -0.894879
 C         4.204076        -0.341017         0.549045
 C         4.461482        -1.657372         1.251866
 C         3.180853        -0.901542         1.413857
 O         1.937478        -1.363393         0.910291
 H         0.223847         1.137569        -0.584242
 H        -0.706263        -0.288786         0.023991
 H         0.230496         0.716761         1.088694
 H         1.986128        -2.203874        -1.431508
 H         0.880717        -1.050109        -2.347289
 H         2.492257         0.794802        -1.684013
 H         4.874966         0.613422         0.752480
 H         4.342510        -2.528213         0.665758
 H         5.136953        -1.629427         2.076682
 H         3.150867        -0.289207         2.309066
