19
Iteration:   218
 C         0.288995         0.273685         0.046056
 C         1.479990        -0.579248        -0.150426
 C         1.637278        -1.335302        -1.431824
 C         2.512837        -0.130565        -1.135625
 O         3.858269        -0.541520        -0.866161
 C         4.221321        -0.301800         0.521138
 C         4.438591        -1.673627         1.200873
 C         3.155222        -0.827319         1.447459
 O         1.992836        -1.305886         0.964913
 H         0.483779         1.051502         0.686802
 H         0.132285         0.750566        -1.003212
 H        -0.555198        -0.257531         0.390260
 H         2.149539        -2.278722        -1.693574
 H         0.774591        -1.033461        -1.999854
 H         2.604566         0.825449        -1.659688
 H         4.781882         0.586339         0.654492
 H         4.366601        -2.421506         0.429557
 H         5.156383        -1.913196         1.933470
 H         3.113481        -0.286704         2.438037
