19
Iteration:  3762
 C         0.462366         0.330626         0.285680
 C         1.422449        -0.567205        -0.289620
 C         1.491351        -1.256560        -1.684180
 C         2.598205        -0.234964        -1.225483
 O         3.915359        -0.548126        -0.797122
 C         4.188723        -0.288006         0.628375
 C         4.489315        -1.545063         1.305888
 C         3.093416        -0.980322         1.423956
 O         1.898391        -1.387608         0.835815
 H        -0.152740         0.987932        -0.420086
 H        -0.136534        -0.117187         1.145182
 H         0.981872         1.283927         0.624468
 H         1.812979        -2.239496        -1.677744
 H         0.896940        -0.767113        -2.427555
 H         2.698828         0.696370        -1.726285
 H         4.638245         0.653809         0.855365
 H         4.747121        -2.407255         0.629447
 H         5.078576        -1.360246         2.283504
 H         2.897458        -0.695404         2.475301
