19
Iteration:  3291
 C         0.366058         0.292733         0.338142
 C         1.545569        -0.579626        -0.241927
 C         1.602860        -1.213653        -1.584651
 C         2.554462        -0.130087        -1.152084
 O         3.867647        -0.599697        -0.915956
 C         4.150246        -0.413136         0.417039
 C         4.372829        -1.571820         1.481145
 C         3.124815        -0.759071         1.405433
 O         2.017591        -1.440252         0.740954
 H         0.380586         1.385367         0.247077
 H        -0.558126        -0.163323         0.159342
 H         0.442328         0.302392         1.432978
 H         1.966175        -2.189232        -1.668154
 H         0.806802        -0.942634        -2.329582
 H         2.467669         0.852210        -1.689726
 H         4.940179         0.434783         0.720551
 H         4.397097        -2.588314         1.115833
 H         5.011948        -1.273598         2.366992
 H         2.818716        -0.116076         2.194894
