19
Iteration:  1363charge 0 multiplicity 1
 C         0.349428         0.273061         0.250029
 C         1.482171        -0.618909        -0.247439
 C         1.545640        -1.201307        -1.604735
 C         2.584567        -0.139388        -1.098655
 O         3.930926        -0.622083        -0.889921
 C         4.200517        -0.357019         0.494077
 C         4.449271        -1.520247         1.352135
 C         3.070517        -0.804662         1.392068
 O         1.975192        -1.425705         0.858728
 H         0.728278         0.716343         1.226522
 H        -0.130204         1.103398        -0.371475
 H        -0.485283        -0.252411         0.507968
 H         2.013919        -2.172760        -1.751030
 H         0.757868        -1.092808        -2.339278
 H         2.605140         0.846192        -1.441798
 H         4.704323         0.684560         0.736806
 H         4.530718        -2.504128         0.867886
 H         5.211851        -1.403861         2.138995
 H         2.819135        -0.172265         2.189722
