19
Iteration:  2077
 C         0.201590         0.189015        -0.005462
 C         1.463219        -0.560683        -0.200027
 C         1.656186        -1.244761        -1.580183
 C         2.598964        -0.082739        -1.083481
 O         3.945131        -0.481199        -0.826352
 C         4.200565        -0.403097         0.509853
 C         4.414743        -1.776819         1.163682
 C         3.273819        -0.838610         1.495675
 O         1.896191        -1.202847         1.047788
 H         0.404195         1.028599         0.749125
 H        -0.257946         0.497500        -0.935050
 H        -0.494271        -0.473648         0.580950
 H         2.099254        -2.227561        -1.686301
 H         0.885366        -1.178672        -2.384779
 H         2.544568         0.971909        -1.340032
 H         4.794603         0.564517         0.779214
 H         4.214071        -2.535790         0.420681
 H         4.963221        -2.151283         1.965524
 H         3.118191        -0.355746         2.434099
