19
Iteration:  1438charge 0 multiplicity 1
 C         0.390347         0.319853         0.234983
 C         1.477926        -0.627297        -0.158600
 C         1.629670        -1.162675        -1.640515
 C         2.565695        -0.154138        -1.113561
 O         3.907679        -0.613287        -0.860379
 C         4.080931        -0.402678         0.443161
 C         4.430425        -1.505328         1.356041
 C         3.079634        -0.792442         1.415245
 O         2.012676        -1.501090         0.858005
 H         0.863465         1.060973         1.004209
 H        -0.142673         0.831177        -0.546341
 H        -0.451330        -0.193794         0.617527
 H         1.914409        -2.204811        -1.794484
 H         0.874602        -0.852584        -2.381985
 H         2.571280         0.887408        -1.332073
 H         4.546457         0.636165         0.688774
 H         4.574148        -2.487533         0.843117
 H         5.190936        -1.304435         2.126878
 H         2.916000        -0.084805         2.089901
