19
Iteration:   475
 C         0.220521         0.213770         0.080910
 C         1.467773        -0.584296        -0.235745
 C         1.657906        -1.340088        -1.495411
 C         2.546138        -0.098630        -1.163603
 O         3.842662        -0.520276        -0.907361
 C         4.244430        -0.318256         0.522721
 C         4.501864        -1.698280         1.292276
 C         3.216168        -0.905516         1.469421
 O         1.929563        -1.192239         0.987095
 H         0.216393         0.711515         1.104537
 H         0.195604         1.010103        -0.636909
 H        -0.755511        -0.231668        -0.046154
 H         2.039578        -2.307528        -1.740099
 H         0.786029        -1.039970        -2.105070
 H         2.472799         0.811870        -1.732261
 H         4.988946         0.585138         0.719962
 H         4.417417        -2.548133         0.658142
 H         5.227389        -1.665948         2.084118
 H         3.234686        -0.571577         2.494605
