19
Iteration:  1420
 C         0.363155         0.270293         0.350309
 C         1.453354        -0.666767        -0.266486
 C         1.532997        -1.128962        -1.697597
 C         2.579877        -0.131785        -1.184868
 O         3.860470        -0.664835        -0.930952
 C         4.279513        -0.337769         0.479360
 C         4.464817        -1.480588         1.510317
 C         3.153280        -0.816728         1.454827
 O         1.953565        -1.476132         0.809584
 H         0.721312         0.968587         1.071329
 H        -0.061415         0.941019        -0.577299
 H        -0.454672        -0.353098         0.720080
 H         1.991740        -2.124498        -1.809771
 H         0.806122        -0.644695        -2.378941
 H         2.603039         0.897654        -1.588797
 H         4.859844         0.644077         0.492295
 H         4.396579        -2.536350         1.166432
 H         4.969757        -1.194231         2.442290
 H         2.658711        -0.274726         2.366619
