19
Iteration:  3186charge 0 multiplicity 1
 C         0.267208         0.340520         0.194137
 C         1.477702        -0.631390        -0.226961
 C         1.518800        -1.273185        -1.510422
 C         2.540522        -0.207879        -1.146073
 O         3.913694        -0.506669        -0.862127
 C         4.269976        -0.278168         0.516554
 C         4.461520        -1.683041         1.300691
 C         3.163082        -0.790921         1.459097
 O         2.011865        -1.390917         0.845231
 H         0.523897         1.302821         0.571520
 H        -0.111571         0.721533        -0.829080
 H        -0.448136        -0.290635         0.716413
 H         1.886568        -2.296163        -1.539248
 H         0.704100        -0.798974        -2.213622
 H         2.401707         0.779622        -1.656202
 H         4.887618         0.518981         0.722791
 H         4.361662        -2.494816         0.621088
 H         5.203429        -1.803558         2.089872
 H         2.838913        -0.416706         2.463485
