19
Iteration:  1306charge 0 multiplicity 1
 C         0.304825         0.303337         0.044292
 C         1.471681        -0.562068        -0.078314
 C         1.642199        -1.312316        -1.430711
 C         2.569486        -0.227825        -1.107730
 O         3.888781        -0.379153        -0.835521
 C         4.245277        -0.280170         0.527220
 C         4.410931        -1.692295         1.177089
 C         3.131202        -0.877462         1.401006
 O         1.947589        -1.399571         0.877589
 H         0.592996         1.300244         0.579319
 H         0.065654         0.602449        -0.944575
 H        -0.475326        -0.263989         0.547168
 H         1.888278        -2.322878        -1.117280
 H         0.993181        -1.095647        -2.300414
 H         2.358812         0.747997        -1.611323
 H         4.914002         0.593507         0.856368
 H         4.267095        -2.428043         0.377357
 H         5.139366        -1.918698         1.952939
 H         3.004810        -0.393218         2.317018
