19
Iteration:  1732charge 0 multiplicity 1
 C         0.253110         0.280387         0.155711
 C         1.525230        -0.570320        -0.171902
 C         1.635774        -1.181227        -1.572932
 C         2.583699        -0.116306        -1.116838
 O         3.867582        -0.515024        -0.910723
 C         4.171553        -0.400522         0.439498
 C         4.408577        -1.662248         1.413543
 C         3.142246        -0.834423         1.394507
 O         2.040982        -1.405606         0.863968
 H         0.372471         1.040959         0.965639
 H         0.082313         0.702880        -0.792443
 H        -0.494042        -0.386176         0.610264
 H         2.251793        -2.107172        -1.709273
 H         0.708956        -1.022574        -2.288726
 H         2.445898         0.944510        -1.379048
 H         4.744158         0.418999         0.745525
 H         4.304147        -2.749040         1.091288
 H         4.939733        -1.492175         2.383771
 H         2.907794        -0.231879         2.335434
