19
Iteration:  3862charge 0 multiplicity 1
 C         0.299017         0.140188         0.137359
 C         1.579268        -0.479027        -0.194307
 C         1.579926        -1.112917        -1.519791
 C         2.576469        -0.079970        -1.113811
 O         3.825408        -0.735917        -0.796300
 C         4.215599        -0.365499         0.483137
 C         4.454449        -1.615844         1.283149
 C         3.145725        -0.814713         1.427835
 O         1.989510        -1.319514         0.838984
 H        -0.011812         1.077469        -0.411953
 H        -0.689349        -0.521446         0.012062
 H         0.292559         0.702809         1.109724
 H         1.841930        -2.115679        -1.502220
 H         0.972736        -0.716125        -2.256563
 H         2.679823         0.844187        -1.606149
 H         4.816564         0.585690         0.568758
 H         4.254738        -2.454342         0.550526
 H         5.170393        -1.701469         2.128270
 H         2.869865        -0.312374         2.403238
