19
Iteration:  4481
 C         0.396857         0.484763         0.216310
 C         1.492604        -0.619813        -0.202513
 C         1.589636        -1.361579        -1.626722
 C         2.567888        -0.233379        -1.131087
 O         3.918873        -0.444654        -0.849448
 C         4.189394        -0.303482         0.528986
 C         4.514782        -1.622743         1.215003
 C         3.120693        -0.921822         1.438508
 O         1.828380        -1.457963         0.906771
 H         0.095113         1.004694        -0.719622
 H        -0.422560         0.056142         0.751984
 H         0.876047         1.244074         0.815756
 H         2.090883        -2.297361        -1.295842
 H         0.779273        -1.122754        -2.387603
 H         2.337301         0.865747        -1.446004
 H         4.523660         0.683052         0.882523
 H         4.544622        -2.450396         0.515167
 H         5.153566        -1.645169         2.097633
 H         3.038592        -0.392688         2.324911
