19
Iteration:  4347
 C         0.350263         0.327008         0.288111
 C         1.431094        -0.574496        -0.233300
 C         1.542801        -1.188334        -1.583091
 C         2.615018        -0.186575        -1.161544
 O         3.965896        -0.578787        -0.857511
 C         4.176151        -0.353831         0.494026
 C         4.479177        -1.550209         1.393601
 C         3.106704        -0.870344         1.402995
 O         1.959902        -1.443652         0.790251
 H         0.190103         1.087623        -0.495171
 H        -0.630618        -0.168671         0.590654
 H         0.655817         0.857562         1.113480
 H         1.582610        -2.237882        -1.683990
 H         0.815353        -0.858791        -2.356647
 H         2.476703         0.779184        -1.575885
 H         4.667471         0.561874         0.719869
 H         4.443196        -2.458086         0.745635
 H         5.194040        -1.604873         2.240136
 H         2.821153        -0.270698         2.284267
