19
Iteration:  2641
 C         0.279407         0.231102         0.176140
 C         1.518785        -0.616655        -0.172924
 C         1.632764        -1.307591        -1.450049
 C         2.495744        -0.194162        -1.216212
 O         3.948923        -0.439477        -1.004875
 C         4.309403        -0.409755         0.499724
 C         4.308731        -1.712277         1.334031
 C         3.145688        -0.679896         1.459132
 O         1.996203        -1.294204         0.942271
 H        -0.712650        -0.260931        -0.038090
 H         0.277406         0.543382         1.252457
 H         0.128263         1.087798        -0.486482
 H         2.155197        -2.350031        -1.386552
 H         0.664386        -1.254685        -2.109428
 H         2.421789         0.700894        -1.915961
 H         4.885619         0.391790         0.812504
 H         4.022212        -2.659099         0.790402
 H         5.282041        -1.670954         1.965005
 H         2.912105         0.060424         2.278462
