19
Iteration:  2673charge 0 multiplicity 1
 C         0.265397         0.338635         0.123379
 C         1.447367        -0.583047        -0.197063
 C         1.602374        -1.332847        -1.521281
 C         2.515926        -0.245853        -1.193476
 O         3.861986        -0.524899        -0.853306
 C         4.285786        -0.332919         0.491031
 C         4.471231        -1.626626         1.281877
 C         3.184449        -0.773805         1.461791
 O         1.976692        -1.295423         0.944274
 H        -0.571677        -0.239857        -0.224998
 H         0.226178         0.306763         1.210787
 H         0.525999         1.231695        -0.380564
 H         1.877326        -2.446198        -1.426040
 H         0.743414        -1.097747        -2.301114
 H         2.212783         0.602220        -1.890562
 H         4.866231         0.450815         0.823919
 H         4.495066        -2.600470         0.712096
 H         5.408559        -1.618667         1.983586
 H         2.964936        -0.206811         2.405123
