19
Iteration:   951
 C         0.291983         0.355174         0.002634
 C         1.498377        -0.564876        -0.120481
 C         1.654232        -1.333788        -1.422978
 C         2.566764        -0.199418        -1.153445
 O         3.928034        -0.364871        -0.861365
 C         4.211212        -0.308312         0.508760
 C         4.397204        -1.708567         1.142270
 C         3.176212        -0.877219         1.488469
 O         1.921490        -1.394272         0.966834
 H         0.392175         1.326553         0.320701
 H        -0.330379         0.219523        -0.913697
 H        -0.412387        -0.276424         0.728160
 H         2.076163        -2.389677        -1.305475
 H         0.855971        -1.158578        -2.224908
 H         2.306689         0.834221        -1.512875
 H         4.827382         0.434514         0.800476
 H         4.323742        -2.484929         0.317764
 H         5.144123        -1.743877         2.016758
 H         3.113720        -0.390957         2.467393
