19
Iteration:  2367
 C         0.314944         0.246111         0.105423
 C         1.548479        -0.557574        -0.238986
 C         1.589326        -1.380927        -1.492614
 C         2.589320        -0.185897        -1.223873
 O         3.947636        -0.266583        -0.892762
 C         4.198896        -0.375725         0.545291
 C         4.297127        -1.760536         1.193368
 C         3.128047        -0.867593         1.551183
 O         1.992250        -1.298399         0.978929
 H         0.426182         1.127434         0.662190
 H        -0.146704         0.757379        -0.780068
 H        -0.433248        -0.363921         0.579294
 H         1.929987        -2.392593        -1.241859
 H         1.032192        -1.090220        -2.332979
 H         2.329741         0.726974        -1.814716
 H         4.912012         0.249022         0.831515
 H         4.164487        -2.774126         0.830638
 H         5.136563        -1.844276         1.902376
 H         3.058870        -0.186213         2.429091
