19
Iteration:  2377
 C         0.291409         0.284410         0.158838
 C         1.499169        -0.512801        -0.215925
 C         1.601621        -1.375456        -1.523656
 C         2.605910        -0.196988        -1.209663
 O         3.960392        -0.236669        -0.878933
 C         4.223402        -0.401254         0.507939
 C         4.302189        -1.764210         1.327410
 C         3.195116        -0.840124         1.454982
 O         1.959475        -1.320470         0.921974
 H         0.489066         1.124360         0.720179
 H        -0.304821         0.340941        -0.783694
 H        -0.362368        -0.444293         0.715890
 H         1.919188        -2.421652        -1.366782
 H         0.896414        -1.386625        -2.296655
 H         2.461204         0.591544        -1.994834
 H         4.940358         0.244502         0.832999
 H         3.822197        -2.535762         0.703246
 H         5.159247        -1.910607         2.009502
 H         3.079674        -0.419718         2.493666
