19
Iteration:  3931charge 0 multiplicity 1
 C         0.441756         0.378284         0.180373
 C         1.529223        -0.572928        -0.190715
 C         1.640899        -1.399523        -1.538491
 C         2.544589        -0.125596        -1.177412
 O         3.923198        -0.392343        -0.891271
 C         4.132365        -0.355444         0.548126
 C         4.320684        -1.703617         1.198166
 C         3.093657        -0.845185         1.559736
 O         1.988871        -1.407263         0.866051
 H        -0.159846         0.742527        -0.654160
 H        -0.296590        -0.139515         0.968581
 H         0.827712         1.348541         0.530043
 H         2.032081        -2.487465        -1.593502
 H         0.756975        -1.154845        -2.271731
 H         2.320568         0.810219        -1.799909
 H         4.834675         0.478137         0.974046
 H         4.039116        -2.502663         0.620889
 H         5.106892        -1.866267         1.891982
 H         2.948745        -0.370881         2.499191
