19
Iteration:   962charge 0 multiplicity 1
 C         0.219589         0.309097         0.012598
 C         1.465716        -0.558374        -0.210429
 C         1.666113        -1.341257        -1.447920
 C         2.553554        -0.155001        -1.168598
 O         3.866453        -0.338518        -0.851075
 C         4.246911        -0.314364         0.555784
 C         4.498613        -1.744776         1.210890
 C         3.231283        -0.918495         1.477989
 O         1.911468        -1.326142         0.982628
 H         0.447740         1.246643         0.389649
 H        -0.246504         0.524737        -0.980417
 H        -0.517965        -0.201534         0.819310
 H         1.878491        -2.433035        -1.212469
 H         0.869439        -1.213091        -2.261385
 H         2.457954         0.653488        -1.954872
 H         4.813280         0.495999         0.716245
 H         4.316235        -2.624031         0.504230
 H         5.260496        -2.130345         1.992900
 H         3.132254        -0.421478         2.444815
