19
Iteration:  2430
 C         0.316729         0.249470         0.098277
 C         1.533152        -0.599005        -0.187340
 C         1.602808        -1.173224        -1.562129
 C         2.604625        -0.084225        -1.213002
 O         3.841216        -0.610788        -0.905095
 C         4.181113        -0.362207         0.591671
 C         4.435396        -1.592198         1.292721
 C         3.119746        -0.882677         1.491373
 O         1.988256        -1.373632         0.959157
 H         0.583817         1.204112         0.501283
 H        -0.187171         0.381053        -0.918741
 H        -0.242974        -0.257538         0.960271
 H         2.009993        -2.132073        -1.873331
 H         0.807494        -0.922678        -2.203478
 H         2.455910         0.967803        -1.597467
 H         4.779436         0.592160         0.824208
 H         4.293659        -2.441685         0.599298
 H         5.173732        -1.617330         2.131626
 H         2.970351        -0.126612         2.296092
