19
Iteration:  1471charge 0 multiplicity 1
 C         0.353362         0.372360         0.133199
 C         1.480136        -0.597733        -0.225895
 C         1.562320        -1.321058        -1.571703
 C         2.473674        -0.159525        -1.263587
 O         3.868493        -0.463489        -0.766862
 C         4.168241        -0.328746         0.564681
 C         4.441767        -1.658377         1.271088
 C         3.193544        -0.915455         1.496139
 O         2.037779        -1.392433         0.881704
 H         0.611778         1.179399         0.914499
 H         0.112537         0.905082        -0.739989
 H        -0.444160        -0.186692         0.526842
 H         2.001921        -2.320875        -1.535895
 H         0.747318        -1.003384        -2.239185
 H         2.522343         0.776051        -1.764752
 H         4.710568         0.629420         0.815795
 H         4.612165        -2.400922         0.470948
 H         4.984522        -1.511362         2.207204
 H         3.002379        -0.499393         2.382284
