19
Iteration:  3038
 C         0.502793         0.348746         0.293886
 C         1.474989        -0.738759        -0.204642
 C         1.527066        -1.215129        -1.599539
 C         2.586036        -0.245873        -1.256662
 O         3.910611        -0.526827        -0.894295
 C         4.154761        -0.312730         0.535624
 C         4.368258        -1.482251         1.349037
 C         3.059283        -0.767722         1.492601
 O         1.997478        -1.496743         0.775861
 H         1.102350         1.173195         0.837920
 H        -0.083128         0.732752        -0.518194
 H         0.029389        -0.154346         1.205082
 H         1.866205        -2.159374        -1.451643
 H         0.804660        -0.864850        -2.304063
 H         2.597083         0.758405        -1.559801
 H         4.862853         0.648925         0.566408
 H         4.092383        -2.464161         0.955413
 H         5.017011        -1.591131         2.273443
 H         2.542032        -0.172393         2.276796
