19
Iteration:  4870
 C         0.448482         0.463564         0.177092
 C         1.467228        -0.608810        -0.239683
 C         1.510260        -1.220250        -1.602464
 C         2.577756        -0.221889        -1.181063
 O         3.913015        -0.597270        -0.823816
 C         4.148650        -0.307485         0.548230
 C         4.463887        -1.550087         1.334154
 C         3.121253        -0.903773         1.486528
 O         1.945571        -1.474023         0.820031
 H        -0.029741         0.876420        -0.773754
 H        -0.386270         0.053971         0.788886
 H         1.077829         1.139540         0.855046
 H         1.836110        -2.280004        -1.708508
 H         0.774888        -0.891415        -2.357738
 H         2.474544         0.762379        -1.554457
 H         4.714525         0.669168         0.805101
 H         4.620304        -2.413317         0.701155
 H         4.953230        -1.417306         2.258644
 H         2.814628        -0.609308         2.489895
