19
Iteration:  1403charge 0 multiplicity 1
 C         0.344005         0.197374         0.272595
 C         1.522092        -0.541899        -0.270518
 C         1.460448        -1.114753        -1.651179
 C         2.565528        -0.141263        -1.221058
 O         3.851871        -0.701945        -0.829728
 C         4.187012        -0.420146         0.501925
 C         4.444672        -1.499315         1.517646
 C         3.102951        -0.748533         1.463810
 O         2.098479        -1.424510         0.700729
 H         0.718777         0.653167         1.256189
 H        -0.001192         0.965461        -0.298454
 H        -0.277467        -0.603640         0.777545
 H         1.750200        -2.165498        -1.766222
 H         0.649873        -0.690658        -2.220448
 H         2.524643         0.912878        -1.598997
 H         4.782804         0.453689         0.644167
 H         4.571073        -2.476366         1.106533
 H         5.174338        -1.186498         2.268987
 H         2.820807        -0.052415         2.245012
