19
Iteration:  3647charge 0 multiplicity 1
 C         0.246043         0.231454         0.185023
 C         1.450788        -0.513558        -0.210325
 C         1.641924        -1.165806        -1.519324
 C         2.557954        -0.083014        -1.105287
 O         3.911848        -0.623102        -0.830156
 C         4.256621        -0.391909         0.497672
 C         4.383945        -1.697224         1.283351
 C         3.157503        -0.784721         1.414698
 O         2.006259        -1.331532         0.837222
 H         0.186794         1.105468        -0.422393
 H        -0.601363        -0.475616        -0.061490
 H         0.239299         0.675651         1.170790
 H         1.892911        -2.206308        -1.531652
 H         0.803103        -1.105084        -2.344202
 H         2.516418         0.873138        -1.718245
 H         5.081530         0.378593         0.757783
 H         4.170312        -2.483623         0.556371
 H         4.995278        -1.815073         2.223684
 H         3.130232        -0.240894         2.427146
