19
Iteration:   935charge 0 multiplicity 1
 C         0.311080         0.254062         0.100811
 C         1.493006        -0.668285        -0.159372
 C         1.616966        -1.331541        -1.486373
 C         2.533776        -0.100309        -1.082982
 O         3.977557        -0.408464        -0.915601
 C         4.167494        -0.326522         0.504798
 C         4.390180        -1.649733         1.182624
 C         3.094602        -0.876241         1.482430
 O         1.963524        -1.349567         0.953457
 H         0.914717         1.336117         0.145200
 H        -0.159801         0.554549        -0.898916
 H        -0.327108         0.042178         0.908306
 H         2.200955        -2.204959        -1.479525
 H         0.878525        -1.320754        -2.226768
 H         2.556315         0.758220        -1.705574
 H         4.727610         0.690425         0.898562
 H         4.122997        -2.540265         0.681099
 H         5.181535        -1.844488         1.826498
 H         2.998861        -0.384699         2.466309
