19
Iteration:  3253charge 0 multiplicity 1
 C         0.384412         0.374419         0.281626
 C         1.457299        -0.568663        -0.187696
 C         1.485808        -1.245142        -1.609693
 C         2.623578        -0.241624        -1.154958
 O         3.907267        -0.571065        -0.828812
 C         4.134767        -0.297570         0.527803
 C         4.439295        -1.545989         1.345296
 C         3.118254        -0.804982         1.422152
 O         2.062727        -1.487876         0.754647
 H         0.414437         1.457331         0.157976
 H        -0.555656         0.086371        -0.339176
 H         0.213727         0.029608         1.339607
 H         1.521374        -2.364081        -1.805182
 H         0.820255        -0.656232        -2.270350
 H         2.605207         0.667564        -1.752237
 H         4.720540         0.535621         0.621625
 H         4.391158        -2.544291         0.918687
 H         5.175253        -1.423263         2.107877
 H         2.896694        -0.323099         2.430317
