19
Iteration:  4937
 C         0.190620         0.138021         0.176542
 C         1.491814        -0.497084        -0.208009
 C         1.581798        -1.127179        -1.645090
 C         2.634766        -0.135209        -1.170083
 O         3.953309        -0.596841        -0.921829
 C         4.252121        -0.507840         0.468711
 C         4.344896        -1.740796         1.412464
 C         3.196177        -0.687872         1.437787
 O         1.976013        -1.252149         0.958516
 H        -0.241750         1.013595        -0.395837
 H        -0.696466        -0.482940         0.354746
 H         0.381041         0.529174         1.182224
 H         1.868390        -2.151588        -1.608539
 H         0.967418        -0.707081        -2.540318
 H         2.649453         0.828005        -1.675047
 H         4.950474         0.318863         0.667957
 H         3.957864        -2.703119         1.047488
 H         5.128946        -1.822916         2.216303
 H         3.301950         0.032644         2.214306
