19
Iteration:  1517charge 0 multiplicity 1
 C         0.239017         0.255207         0.121765
 C         1.528859        -0.594751        -0.160005
 C         1.697497        -1.339236        -1.455781
 C         2.632273        -0.139763        -1.172652
 O         3.922638        -0.364843        -0.957169
 C         4.190004        -0.332300         0.550738
 C         4.301936        -1.790190         1.239077
 C         3.166940        -0.884695         1.405904
 O         1.944032        -1.290213         0.969098
 H         0.474521         0.978061         0.897830
 H         0.045945         0.976749        -0.758555
 H        -0.587621        -0.300531         0.415876
 H         2.249957        -2.269256        -1.225832
 H         0.838806        -1.163965        -2.117711
 H         2.477978         0.842052        -1.592022
 H         4.837354         0.654563         0.754565
 H         4.068059        -2.497241         0.431067
 H         5.048871        -1.789531         2.041763
 H         3.041342        -0.463886         2.333359
