19
Iteration:  3136
 C         0.262844         0.243973         0.202545
 C         1.497404        -0.594479        -0.259657
 C         1.661284        -1.264026        -1.546129
 C         2.504680        -0.088421        -1.197760
 O         3.872249        -0.547731        -0.904564
 C         4.224139        -0.463517         0.398858
 C         4.367840        -1.601366         1.299777
 C         3.174082        -0.788536         1.504069
 O         2.020296        -1.309672         0.960004
 H         0.321667         0.319322         1.345455
 H         0.313206         1.231615        -0.106601
 H        -0.654268        -0.310023        -0.119804
 H         2.357125        -2.049174        -1.590860
 H         0.757740        -1.185454        -2.094651
 H         2.583852         0.848468        -1.666185
 H         5.006323         0.375309         0.710413
 H         4.123813        -2.636919         0.950524
 H         5.024623        -1.506399         2.216330
 H         3.016050        -0.117474         2.362492
