19
Iteration:  3615charge 0 multiplicity 1
 C         0.397020         0.356528         0.090638
 C         1.455920        -0.609791        -0.190441
 C         1.534287        -1.186904        -1.679473
 C         2.524303        -0.093023        -1.180600
 O         3.892914        -0.512795        -0.897817
 C         4.131473        -0.405670         0.571890
 C         4.512902        -1.639281         1.369850
 C         3.162847        -0.920554         1.511987
 O         2.002264        -1.447895         0.943349
 H         0.239066         0.971120        -0.803770
 H        -0.587175        -0.050560         0.458255
 H         0.499755         1.058655         0.933901
 H         1.945956        -2.170796        -1.751910
 H         0.586062        -0.748046        -2.175091
 H         2.292165         0.865892        -1.732139
 H         4.713430         0.499631         0.629479
 H         4.464165        -2.587198         0.826782
 H         5.266892        -1.590098         2.193274
 H         3.072481        -0.327099         2.487567
