19
Iteration:  4992
 C         0.348303         0.434095         0.092868
 C         1.482953        -0.565339        -0.171454
 C         1.604974        -1.267985        -1.549303
 C         2.564124        -0.165181        -1.180313
 O         3.903264        -0.490548        -0.891094
 C         4.202259        -0.469364         0.526132
 C         4.506712        -1.641387         1.267081
 C         3.142259        -0.928953         1.523740
 O         1.867741        -1.353431         0.939887
 H         0.005783         0.962934        -0.857021
 H        -0.602622        -0.034870         0.347286
 H         0.707510         1.129925         0.843717
 H         2.040137        -2.338126        -1.717502
 H         0.853627        -1.163068        -2.357802
 H         2.350048         0.867100        -1.526444
 H         4.740261         0.440965         0.802740
 H         4.442971        -2.608309         0.700551
 H         5.269349        -1.425390         2.083857
 H         3.073959        -0.506086         2.517654
