19
Iteration:  2382
 C         0.244100         0.267444         0.156841
 C         1.485058        -0.528699        -0.207523
 C         1.647500        -1.365723        -1.498704
 C         2.555051        -0.209943        -1.225807
 O         3.979346        -0.240856        -0.850930
 C         4.258671        -0.449628         0.486106
 C         4.323574        -1.787422         1.329013
 C         3.203380        -0.779405         1.465325
 O         1.933881        -1.320131         0.865404
 H         0.517044         1.234105         0.779990
 H        -0.290582         0.458532        -0.756286
 H        -0.160380        -0.354325         0.961438
 H         1.957210        -2.390278        -1.369323
 H         0.800184        -1.350160        -2.290607
 H         2.507571         0.607558        -1.907346
 H         4.927871         0.493529         0.815158
 H         3.958254        -2.568353         0.674916
 H         5.047817        -1.954588         2.100762
 H         2.958231        -0.372759         2.414780
