19
Iteration:  1053charge 0 multiplicity 1
 C         0.176348         0.254272         0.132636
 C         1.500302        -0.640722        -0.245135
 C         1.532297        -1.220833        -1.597430
 C         2.515746        -0.123056        -1.195446
 O         3.857412        -0.499689        -0.844753
 C         4.244067        -0.433555         0.516515
 C         4.514396        -1.700108         1.424281
 C         3.197846        -0.825936         1.448834
 O         2.032055        -1.285434         0.895073
 H         0.424844         1.004151         1.033491
 H         0.160091         0.878007        -0.704340
 H        -0.715292        -0.349143         0.367211
 H         2.149392        -2.075327        -1.680759
 H         0.793355        -1.231407        -2.354930
 H         2.524421         0.939057        -1.659836
 H         4.932163         0.496536         0.815929
 H         4.505317        -2.621132         0.865391
 H         5.234968        -1.638672         2.210070
 H         3.024052         0.011453         2.212449
