19
Iteration:  3539charge 0 multiplicity 1
 C         0.452756         0.257140         0.298767
 C         1.542376        -0.576677        -0.244675
 C         1.444076        -1.193633        -1.605241
 C         2.656244        -0.122896        -1.198734
 O         3.930962        -0.563758        -0.908931
 C         4.150147        -0.435904         0.534335
 C         4.354601        -1.539676         1.431808
 C         3.063314        -0.760826         1.439398
 O         2.026456        -1.479611         0.729534
 H        -0.212058         0.718132        -0.476279
 H        -0.438221        -0.165796         0.884470
 H         0.961277         1.016456         0.993985
 H         1.712676        -2.272247        -1.533427
 H         0.650308        -0.729077        -2.169253
 H         2.471086         0.889593        -1.614606
 H         4.657495         0.419603         0.807453
 H         4.458958        -2.640703         1.212330
 H         5.084894        -1.312227         2.220083
 H         2.816629        -0.193932         2.383869
