19
Iteration:  2184charge 0 multiplicity 1
 C         0.389260         0.425901         0.176581
 C         1.444183        -0.582298        -0.235248
 C         1.600016        -1.255444        -1.590078
 C         2.586670        -0.111992        -1.173082
 O         3.867207        -0.601123        -0.816085
 C         4.088326        -0.270430         0.573071
 C         4.536948        -1.530230         1.318496
 C         3.112141        -1.008883         1.452897
 O         1.955305        -1.502649         0.815643
 H         0.905156         1.235965         0.806445
 H         0.022108         1.004238        -0.710342
 H        -0.420760        -0.120390         0.559299
 H         1.945563        -2.257995        -1.435939
 H         0.833984        -0.947484        -2.318571
 H         2.576031         0.875729        -1.701104
 H         4.598516         0.740570         0.876358
 H         4.747392        -2.515618         0.848750
 H         5.125448        -1.177097         2.159662
 H         2.850570        -0.615179         2.368512
