19
Iteration:  4219
 C         0.252819         0.214118         0.182849
 C         1.500596        -0.681383        -0.218035
 C         1.570904        -1.107290        -1.678697
 C         2.607930        -0.064571        -1.068963
 O         3.851677        -0.638633        -0.854710
 C         4.242619        -0.404755         0.483520
 C         4.378224        -1.685071         1.331073
 C         3.180963        -0.736633         1.443552
 O         2.046359        -1.330841         0.934681
 H         0.109486         0.865255        -0.735800
 H        -0.615709        -0.441058         0.136708
 H         0.363697         0.837857         1.109195
 H         1.999308        -2.040390        -1.997908
 H         0.671175        -0.731126        -2.262097
 H         2.684089         0.950832        -1.359787
 H         4.916620         0.347633         0.766184
 H         3.959117        -2.527885         0.756541
 H         5.158782        -1.592737         2.112912
 H         3.018548        -0.001986         2.214800
