19
Iteration:  1177charge 0 multiplicity 1
 C         0.369866         0.319458         0.256386
 C         1.482485        -0.582845        -0.257169
 C         1.625653        -1.240414        -1.587262
 C         2.615882        -0.216210        -1.166019
 O         3.835369        -0.579042        -0.780615
 C         4.123756        -0.301005         0.511403
 C         4.458539        -1.521743         1.264715
 C         3.157439        -0.824179         1.436056
 O         1.954369        -1.450138         0.834230
 H         0.742316         0.694120         1.297730
 H        -0.002310         1.068070        -0.556395
 H        -0.467605        -0.370651         0.467607
 H         1.976191        -2.293889        -1.668102
 H         0.909496        -0.943345        -2.389370
 H         2.598746         0.772107        -1.599166
 H         4.617386         0.759504         0.730807
 H         4.241095        -2.507547         0.826994
 H         5.263522        -1.534759         2.010194
 H         2.918902        -0.204973         2.243606
