19
Iteration:  2270
 C         0.306120         0.250646         0.310838
 C         1.465777        -0.592135        -0.192705
 C         1.594607        -1.219196        -1.624575
 C         2.584500        -0.109722        -1.192726
 O         3.901616        -0.619435        -0.874465
 C         4.239981        -0.399427         0.487050
 C         4.351226        -1.548253         1.403929
 C         3.095557        -0.733736         1.480730
 O         2.049213        -1.447475         0.738710
 H         0.484658         0.903411         1.216452
 H        -0.029174         0.975947        -0.464108
 H        -0.523109        -0.320793         0.634680
 H         1.898252        -2.270659        -1.825317
 H         1.004951        -0.786939        -2.423398
 H         2.628669         0.938611        -1.598314
 H         4.860798         0.397612         0.708266
 H         4.311972        -2.639630         1.152104
 H         5.077865        -1.447573         2.245383
 H         2.859567         0.107407         2.168950
