19
Iteration:   500charge 0 multiplicity 1
 C         0.271668         0.234234         0.163389
 C         1.490646        -0.519763        -0.231942
 C         1.626296        -1.255005        -1.545752
 C         2.590289        -0.203561        -1.155491
 O         3.876935        -0.573753        -0.868247
 C         4.188310        -0.332394         0.522509
 C         4.463569        -1.650355         1.270000
 C         3.163735        -0.707627         1.470181
 O         1.941864        -1.381031         0.915486
 H         0.399682         0.772312         1.085005
 H        -0.093000         1.057007        -0.695668
 H        -0.606002        -0.353142         0.322372
 H         2.037566        -2.291773        -1.609421
 H         0.896292        -1.116054        -2.354747
 H         2.567166         0.830968        -1.485820
 H         4.783307         0.527851         0.771821
 H         4.243345        -2.463605         0.562902
 H         5.348321        -1.655126         1.908173
 H         3.225769        -0.246007         2.546018
