19
Iteration:  2214
 C         0.487859         0.391317         0.273371
 C         1.489391        -0.639455        -0.294928
 C         1.461208        -1.162123        -1.657159
 C         2.581410        -0.174616        -1.194068
 O         3.898025        -0.654781        -0.822813
 C         4.075132        -0.225370         0.614647
 C         4.505927        -1.499220         1.443015
 C         3.059371        -0.859849         1.451849
 O         2.044937        -1.589405         0.714704
 H         0.927686         1.243197         0.774487
 H        -0.208345         0.683658        -0.573532
 H        -0.183036        -0.066162         0.996099
 H         1.472876        -2.227536        -1.672457
 H         0.805316        -0.679857        -2.415653
 H         2.793304         0.871893        -1.566992
 H         4.507828         0.642063         0.827922
 H         4.405677        -2.512623         0.882390
 H         5.281506        -1.248577         2.260656
 H         2.628056        -0.209448         2.289705
