19
Iteration:  1359
 C         0.378629         0.283255         0.230498
 C         1.457142        -0.624510        -0.243939
 C         1.535712        -1.235831        -1.632542
 C         2.581020        -0.128770        -1.088943
 O         3.914666        -0.591847        -0.869919
 C         4.195798        -0.344823         0.478887
 C         4.490887        -1.543854         1.342375
 C         3.081734        -0.830816         1.396698
 O         1.955514        -1.398602         0.866925
 H         0.591037         0.785998         1.245914
 H         0.124605         1.070641        -0.438104
 H        -0.477582        -0.421360         0.646153
 H         2.032168        -2.204422        -1.762292
 H         0.771434        -1.107578        -2.406328
 H         2.610772         0.926511        -1.512129
 H         4.604593         0.604764         0.755799
 H         4.476788        -2.575089         1.003431
 H         5.175261        -1.398457         2.170237
 H         2.954681        -0.161129         2.262826
