19
Iteration:  3561
 C         0.479536         0.373687         0.353466
 C         1.465596        -0.565874        -0.278389
 C         1.514122        -1.227903        -1.649976
 C         2.566644        -0.242323        -1.347761
 O         3.858032        -0.565585        -0.783364
 C         4.179123        -0.314842         0.592052
 C         4.375394        -1.558633         1.421564
 C         3.143204        -0.875879         1.501172
 O         2.021749        -1.434635         0.705424
 H        -0.359570         0.639632        -0.341930
 H        -0.218329        -0.249898         1.022202
 H         1.031949         1.195538         0.918172
 H         1.833007        -2.280415        -1.669235
 H         0.927780        -0.822767        -2.507789
 H         2.468231         0.823450        -1.694944
 H         4.586933         0.627467         0.629622
 H         4.406522        -2.481295         0.800395
 H         5.077480        -1.649763         2.263116
 H         2.925215        -0.288844         2.435560
