19
Iteration:  3758
 C         0.442405         0.353470         0.280584
 C         1.412731        -0.595246        -0.300199
 C         1.499885        -1.223519        -1.647431
 C         2.602262        -0.228983        -1.225049
 O         3.923713        -0.553247        -0.812173
 C         4.197890        -0.284750         0.601365
 C         4.496009        -1.550319         1.313893
 C         3.090851        -0.996004         1.447309
 O         1.878078        -1.386014         0.839736
 H        -0.200464         0.859132        -0.497290
 H        -0.056546        -0.053339         1.104505
 H         1.036926         1.216397         0.672673
 H         1.995742        -2.293381        -1.603360
 H         0.894862        -0.735762        -2.433754
 H         2.597070         0.741609        -1.834785
 H         4.604352         0.682562         0.877433
 H         4.931464        -2.310016         0.695330
 H         4.998755        -1.511866         2.206616
 H         2.895597        -0.696345         2.442769
