19
Iteration:  3191charge 0 multiplicity 1
 C         0.316368         0.343359         0.155204
 C         1.464792        -0.604790        -0.183625
 C         1.526490        -1.252472        -1.554098
 C         2.518807        -0.197014        -1.130280
 O         3.892778        -0.508270        -0.858456
 C         4.215392        -0.302406         0.516660
 C         4.470555        -1.665645         1.315150
 C         3.178625        -0.826374         1.464052
 O         2.016805        -1.400098         0.850526
 H         0.647900         1.334121         0.596682
 H        -0.217514         0.489487        -0.754773
 H        -0.447453        -0.195475         0.748884
 H         1.869770        -2.288244        -1.583236
 H         0.791031        -1.019941        -2.229702
 H         2.476448         0.729074        -1.655019
 H         4.953566         0.586769         0.705884
 H         4.355085        -2.416358         0.483593
 H         5.207915        -1.712975         2.121951
 H         2.957760        -0.336293         2.417644
