19
Iteration:   426charge 0 multiplicity 1
 C         0.271446         0.269776         0.028655
 C         1.461733        -0.636237        -0.161091
 C         1.625090        -1.310604        -1.432261
 C         2.524139        -0.167793        -1.179828
 O         3.926992        -0.411087        -0.872351
 C         4.256414        -0.371410         0.507535
 C         4.366292        -1.726385         1.201403
 C         3.173659        -0.790832         1.493229
 O         2.006024        -1.295438         0.974452
 H         0.413968         0.860045         0.886185
 H        -0.180218         0.776674        -0.901959
 H        -0.678761        -0.253672         0.339124
 H         2.288034        -2.246822        -1.398708
 H         0.829797        -1.289216        -2.203485
 H         2.374228         0.833015        -1.668420
 H         4.900949         0.462443         0.725924
 H         4.041614        -2.484335         0.435837
 H         5.136621        -1.916408         1.976899
 H         3.242354        -0.056918         2.408472
