19
Iteration:   224charge 0 multiplicity 1
 C         0.300710         0.295591         0.038320
 C         1.479816        -0.583102        -0.153903
 C         1.635712        -1.313707        -1.434067
 C         2.598111        -0.178001        -1.132401
 O         3.850256        -0.543064        -0.870841
 C         4.200597        -0.329266         0.500728
 C         4.436404        -1.643565         1.153228
 C         3.155899        -0.788639         1.462236
 O         1.970425        -1.341795         0.981302
 H         0.372735         1.125088         0.884659
 H         0.093801         0.836261        -0.852117
 H        -0.591072        -0.358148         0.327397
 H         2.137956        -2.262131        -1.512940
 H         0.877084        -1.033788        -2.189699
 H         2.386162         0.891842        -1.420177
 H         4.803828         0.620921         0.584654
 H         4.335238        -2.527904         0.484812
 H         5.213235        -1.750157         1.972088
 H         2.991827        -0.323776         2.468527
