19
Iteration:  1667
 C         0.562767         0.389648         0.315791
 C         1.484342        -0.625936        -0.305125
 C         1.489751        -1.177657        -1.594377
 C         2.579706        -0.175821        -1.182774
 O         3.867461        -0.609334        -0.821775
 C         4.090759        -0.254309         0.571889
 C         4.478113        -1.414866         1.423520
 C         3.018132        -0.948141         1.426075
 O         2.024480        -1.580411         0.660808
 H         0.980508         0.850074         1.318425
 H         0.240228         1.144497        -0.403153
 H        -0.325341        -0.146026         0.649817
 H         1.930458        -2.237134        -1.592520
 H         0.653451        -1.034351        -2.384609
 H         2.680763         0.833685        -1.554704
 H         4.465368         0.741942         0.539024
 H         4.451637        -2.502741         1.166351
 H         5.015564        -1.194028         2.408107
 H         2.632467        -0.373416         2.277179
