19
Iteration:   455
 C         0.227650         0.246501        -0.026058
 C         1.481176        -0.584311        -0.142409
 C         1.602801        -1.266626        -1.495472
 C         2.500668        -0.138902        -1.144216
 O         3.922760        -0.451922        -0.866884
 C         4.254458        -0.422393         0.471440
 C         4.499825        -1.686957         1.190899
 C         3.197733        -0.870907         1.497851
 O         1.932361        -1.266425         1.060934
 H         0.043431         0.743773         0.954963
 H         0.034250         1.159037        -0.795240
 H        -0.635884        -0.388753        -0.105055
 H         2.094114        -2.201116        -1.353377
 H         0.968893        -1.465433        -2.342363
 H         2.427405         0.823328        -1.588393
 H         4.835933         0.493556         0.696578
 H         4.365548        -2.594180         0.625646
 H         5.246981        -1.705697         1.965660
 H         3.205072        -0.109903         2.340333
