19
Iteration:  4670charge 0 multiplicity 1
 C         0.429325         0.437945         0.171163
 C         1.443277        -0.544826        -0.194849
 C         1.605472        -1.392656        -1.491626
 C         2.590606        -0.271406        -1.241957
 O         3.850686        -0.397157        -0.799678
 C         4.179708        -0.340510         0.598000
 C         4.384165        -1.680992         1.136086
 C         3.117195        -0.896430         1.481942
 O         2.002203        -1.368229         0.868925
 H         0.111425         1.017154        -0.650028
 H        -0.454656         0.056769         0.630304
 H         0.687750         1.258674         0.919215
 H         2.089532        -2.387444        -1.462066
 H         0.986099        -1.275338        -2.315658
 H         2.335566         0.574317        -1.913835
 H         4.809289         0.600922         0.982850
 H         4.299248        -2.559726         0.433278
 H         5.085047        -1.692885         1.980793
 H         2.845433        -0.504886         2.503215
