19
Iteration:  2524
 C         0.441428         0.394342         0.326130
 C         1.412207        -0.694460        -0.252653
 C         1.523207        -1.263717        -1.620792
 C         2.588180        -0.297902        -1.257294
 O         3.940400        -0.536044        -0.883249
 C         4.171527        -0.325348         0.525608
 C         4.409708        -1.481815         1.430913
 C         3.036837        -0.792242         1.398855
 O         2.068476        -1.428063         0.806778
 H         0.368263         0.143673         1.463661
 H         0.933761         1.343456         0.188948
 H        -0.606036         0.114677         0.076871
 H         1.686462        -2.392204        -1.823193
 H         0.750684        -1.030234        -2.383778
 H         2.336583         0.784535        -1.451446
 H         4.943678         0.562133         0.681407
 H         4.099065        -2.471470         1.001361
 H         5.091958        -1.413491         2.349977
 H         2.700145        -0.112835         2.220909
