19
Iteration:  2698
 C         0.284482         0.402021         0.085538
 C         1.540847        -0.568428        -0.199792
 C         1.543741        -1.317621        -1.474751
 C         2.620707        -0.147814        -1.133519
 O         3.822981        -0.663842        -0.907800
 C         4.111221        -0.230164         0.458944
 C         4.496817        -1.568444         1.264665
 C         3.185551        -0.856007         1.495248
 O         1.996374        -1.415684         0.943891
 H        -0.584384        -0.219838        -0.276957
 H         0.260423         0.497425         1.157304
 H         0.568214         1.291018        -0.476567
 H         2.065669        -2.212530        -1.337668
 H         0.674750        -1.373660        -2.132170
 H         2.465115         0.794421        -1.653573
 H         4.469035         0.762581         0.656597
 H         4.788782        -2.470867         0.739122
 H         5.189233        -1.414770         2.044403
 H         3.029602        -0.375015         2.466121
