19
Iteration:  1302
 C         0.305446         0.328704         0.057554
 C         1.460695        -0.545802        -0.108634
 C         1.673642        -1.311873        -1.440393
 C         2.557207        -0.242152        -1.108259
 O         3.894046        -0.365508        -0.855473
 C         4.267987        -0.294002         0.544548
 C         4.389425        -1.703954         1.175964
 C         3.136741        -0.889176         1.391009
 O         1.946724        -1.393039         0.913660
 H         0.639178         1.212953         0.617259
 H        -0.112233         0.534839        -0.967096
 H        -0.567986        -0.432769         0.562295
 H         1.924215        -2.329601        -1.156599
 H         0.989338        -1.022447        -2.230301
 H         2.361166         0.702042        -1.724525
 H         4.840693         0.531692         0.781585
 H         4.349622        -2.403099         0.336931
 H         5.120164        -1.819808         1.982008
 H         2.949667        -0.359655         2.450142
