19
Iteration:  3369charge 0 multiplicity 1
 C         0.184689         0.411313         0.191088
 C         1.429883        -0.555260        -0.203074
 C         1.663288        -1.279228        -1.517033
 C         2.593496        -0.159039        -1.152802
 O         3.915630        -0.509494        -0.875967
 C         4.262298        -0.382308         0.550736
 C         4.463820        -1.641143         1.299439
 C         3.171188        -0.967712         1.431733
 O         1.958579        -1.365867         0.829755
 H        -0.573971         0.576017        -0.584524
 H        -0.410073        -0.071416         0.933641
 H         0.392538         1.434163         0.408851
 H         2.172892        -2.353697        -1.540219
 H         0.903722        -1.045395        -2.286343
 H         2.469690         0.868848        -1.661680
 H         4.621971         0.677525         1.049933
 H         4.581270        -2.371863         0.498943
 H         5.118377        -1.816898         2.103508
 H         2.954517        -0.440365         2.334598
