19
Iteration:  1121
 C         0.522029         0.337683         0.346691
 C         1.445315        -0.587154        -0.246576
 C         1.513411        -1.215474        -1.740749
 C         2.523277        -0.234174        -1.210067
 O         3.812704        -0.558201        -0.858183
 C         4.141894        -0.369054         0.553938
 C         4.446592        -1.427009         1.484720
 C         3.058978        -0.878248         1.490204
 O         2.074204        -1.548793         0.740419
 H         1.021573         1.306694         0.852762
 H         0.159061         0.926034        -0.620865
 H        -0.233596         0.015465         1.001051
 H         1.748611        -2.316466        -1.865995
 H         0.878735        -0.892174        -2.604556
 H         2.507257         0.791743        -1.669404
 H         4.898374         0.595617         0.620490
 H         4.724810        -2.438219         1.148860
 H         5.053474        -0.913628         2.256446
 H         2.667218        -0.323890         2.343352
