19
Iteration:   311
 C         0.413850         0.269541         0.324676
 C         1.498332        -0.621995        -0.259173
 C         1.522490        -1.144528        -1.593511
 C         2.583346        -0.177190        -1.151204
 O         3.903662        -0.714977        -0.843861
 C         4.144518        -0.305406         0.400261
 C         4.450232        -1.443878         1.430972
 C         3.081380        -0.815230         1.360406
 O         1.997767        -1.466164         0.827392
 H         0.773880         0.795033         1.311216
 H         0.300753         1.011828        -0.448947
 H        -0.592240        -0.224011         0.510085
 H         1.833548        -2.169645        -1.774090
 H         0.753556        -0.920565        -2.308632
 H         2.433397         0.794851        -1.604983
 H         4.615005         0.716668         0.473301
 H         4.738520        -2.490018         1.172013
 H         4.936165        -0.968856         2.288889
 H         2.894178        -0.222791         2.210311
