19
Iteration:  1065
 C         0.244996         0.278994         0.157385
 C         1.441487        -0.547398        -0.208252
 C         1.597937        -1.262155        -1.663677
 C         2.541053        -0.114586        -1.198033
 O         3.892726        -0.575948        -0.886703
 C         4.221084        -0.403389         0.533814
 C         4.513275        -1.611911         1.395546
 C         3.177614        -0.811459         1.505376
 O         2.003800        -1.371067         0.861770
 H         0.550822         0.973233         1.075869
 H        -0.291406         0.872490        -0.598976
 H        -0.576797        -0.325230         0.463652
 H         1.943764        -2.275918        -1.695882
 H         0.695879        -0.965320        -2.171611
 H         2.490303         0.949525        -1.614909
 H         4.808718         0.644806         0.711229
 H         4.411896        -2.582737         0.928717
 H         5.215928        -1.487955         2.203162
 H         2.999536        -0.417701         2.546280
