19
Iteration:  1689charge 0 multiplicity 1
 C         0.455529         0.401396         0.350832
 C         1.487842        -0.679088        -0.279336
 C         1.588569        -1.163604        -1.750159
 C         2.531575        -0.239105        -1.223771
 O         3.855713        -0.676225        -0.771880
 C         4.070511        -0.243053         0.608971
 C         4.449431        -1.512415         1.403824
 C         3.088577        -0.860510         1.456040
 O         2.046563        -1.477572         0.725793
 H         0.725356         0.966678         1.336094
 H         0.044986         1.022541        -0.465343
 H        -0.339939        -0.164143         0.786590
 H         1.668046        -2.287379        -1.898173
 H         0.841247        -0.598434        -2.476250
 H         2.634639         0.742269        -1.660535
 H         4.536511         0.732224         0.696022
 H         4.813664        -2.281168         0.656282
 H         5.121855        -1.206859         2.267038
 H         2.890455        -0.349783         2.414410
