19
Iteration:  4379charge 0 multiplicity 1
 C         0.255304         0.192642         0.171361
 C         1.513370        -0.540094        -0.211232
 C         1.572967        -1.074149        -1.618529
 C         2.618272        -0.062805        -1.195661
 O         3.788817        -0.742471        -0.768164
 C         4.159557        -0.393534         0.467537
 C         4.509009        -1.580524         1.324965
 C         3.182514        -0.837214         1.457701
 O         2.043144        -1.336122         0.875107
 H         0.049809         0.845705        -0.666948
 H        -0.677064        -0.430443         0.243171
 H         0.406122         0.779894         0.963652
 H         1.798665        -2.118805        -1.713535
 H         0.666418        -0.683403        -2.126268
 H         2.663524         0.985094        -1.435815
 H         4.784403         0.443502         0.668297
 H         4.484112        -2.547744         0.766176
 H         5.271685        -1.588825         2.102808
 H         2.949445        -0.311124         2.454303
