19
Iteration:  1113charge 0 multiplicity 1
 C         0.481455         0.394736         0.311146
 C         1.454232        -0.650571        -0.236247
 C         1.511823        -1.220210        -1.703632
 C         2.566529        -0.200677        -1.201136
 O         3.848293        -0.612666        -0.864448
 C         4.156144        -0.289580         0.480387
 C         4.431567        -1.427294         1.475401
 C         3.059128        -0.905681         1.525937
 O         2.065186        -1.528055         0.737084
 H         1.112856         1.041493         0.848236
 H        -0.235639         0.969803        -0.347544
 H        -0.286703        -0.084894         0.963585
 H         1.952715        -2.228545        -1.812657
 H         0.867360        -0.743430        -2.457993
 H         2.552745         0.740385        -1.644602
 H         4.590922         0.678606         0.646771
 H         4.540792        -2.438250         1.046748
 H         5.074086        -1.207757         2.357536
 H         2.722805        -0.324504         2.327918
