19
Iteration:  4934
 C         0.179833         0.152707         0.176232
 C         1.506421        -0.512075        -0.214547
 C         1.591974        -1.114787        -1.638767
 C         2.626375        -0.131219        -1.196328
 O         3.934841        -0.596389        -0.915916
 C         4.244478        -0.531719         0.468170
 C         4.354842        -1.729120         1.427146
 C         3.198964        -0.702431         1.419194
 O         1.969654        -1.251370         0.964200
 H        -0.147353         0.982751        -0.353068
 H        -0.586896        -0.554238         0.379874
 H         0.340657         0.566603         1.173676
 H         1.890667        -2.128816        -1.627972
 H         1.031945        -0.680834        -2.461068
 H         2.633943         0.825764        -1.656869
 H         4.905413         0.427807         0.700229
 H         4.022632        -2.685889         1.090468
 H         5.052224        -1.821540         2.211118
 H         3.390720         0.030805         2.194872
