19
Iteration:     1
 C         0.344194         0.294289         0.187175
 C         1.496271        -0.599444        -0.195886
 C         1.576999        -1.259017        -1.550638
 C         2.556189        -0.173423        -1.175558
 O         3.863673        -0.579014        -0.866194
 C         4.190149        -0.350446         0.478539
 C         4.432592        -1.568395         1.330523
 C         3.141702        -0.801757         1.457362
 O         2.007578        -1.377928         0.867262
 H         0.639226         1.001007         0.970622
 H        -0.005859         0.870461        -0.674687
 H        -0.494390        -0.300906         0.563104
 H         1.970051        -2.268642        -1.574083
 H         0.811964        -1.033366        -2.285855
 H         2.488025         0.801304        -1.656182
 H         4.757869         0.559895         0.660262
 H         4.374204        -2.525650         0.825794
 H         5.155187        -1.501094         2.136311
 H         2.945828        -0.223642         2.358009
