19
Iteration:   344
 C         0.361911         0.357334         0.264235
 C         1.502231        -0.661416        -0.230210
 C         1.507742        -1.198396        -1.688138
 C         2.539617        -0.151851        -1.225489
 O         3.851744        -0.678028        -0.816689
 C         4.086107        -0.318320         0.500862
 C         4.496092        -1.482976         1.392529
 C         3.144248        -0.826770         1.493194
 O         2.076547        -1.489795         0.836252
 H         0.846790         1.358461         0.622410
 H        -0.092692         0.767068        -0.658681
 H        -0.447074        -0.014554         0.941583
 H         1.953800        -2.178147        -1.744917
 H         0.764997        -0.732213        -2.290596
 H         2.518649         0.813625        -1.720532
 H         4.464601         0.727034         0.552725
 H         4.672364        -2.518676         1.080487
 H         5.240446        -1.304560         2.156179
 H         3.008173        -0.286089         2.383422
