19
Iteration:  2629charge 0 multiplicity 1
 C         0.282994         0.205764         0.147983
 C         1.534621        -0.516059        -0.156242
 C         1.646339        -1.356632        -1.451416
 C         2.618908        -0.091025        -1.226343
 O         3.848578        -0.470158        -0.958677
 C         4.173185        -0.441204         0.443997
 C         4.320786        -1.672194         1.312279
 C         3.183308        -0.687200         1.484946
 O         2.002827        -1.333898         0.943209
 H        -0.499372        -0.562765         0.254488
 H         0.375429         0.772859         1.107780
 H         0.151734         1.003362        -0.575155
 H         2.141685        -2.415584        -1.256783
 H         0.838574        -1.306155        -2.262094
 H         2.408436         0.858208        -1.812520
 H         4.920972         0.251695         0.481655
 H         4.113024        -2.681757         0.883433
 H         5.163056        -1.731964         2.092417
 H         3.080901        -0.039471         2.390310
