19
Iteration:  4044
 C         0.224789         0.216522         0.312836
 C         1.523212        -0.535775        -0.225828
 C         1.606548        -1.073959        -1.685879
 C         2.589613        -0.152649        -1.229504
 O         3.879024        -0.666101        -0.891023
 C         4.261197        -0.482792         0.440262
 C         4.417296        -1.516817         1.479956
 C         3.147064        -0.807115         1.416740
 O         1.980072        -1.390370         0.858878
 H         0.038797         1.076868        -0.322906
 H        -0.510964        -0.445647         0.415703
 H         0.581334         0.589252         1.271855
 H         1.918818        -2.156356        -1.674121
 H         0.739019        -0.526300        -2.209160
 H         2.674372         0.871399        -1.562677
 H         4.746191         0.422930         0.584104
 H         4.218603        -2.620778         1.127004
 H         5.199476        -1.440535         2.298116
 H         2.852579        -0.070043         2.195882
