19
Iteration:  4712charge 0 multiplicity 1
 C         0.348556         0.235113         0.182872
 C         1.534765        -0.593620        -0.199774
 C         1.625679        -1.231262        -1.530920
 C         2.559822        -0.102582        -1.224362
 O         3.905962        -0.417126        -0.904413
 C         4.219172        -0.537038         0.416780
 C         4.317038        -1.685041         1.347490
 C         3.137340        -0.804144         1.474400
 O         1.967304        -1.318741         0.952893
 H        -0.023060         0.857738        -0.654671
 H        -0.510932        -0.369430         0.432753
 H         0.501619         1.127059         0.876167
 H         1.987671        -2.330597        -1.567951
 H         0.859012        -0.976704        -2.204230
 H         2.510235         0.882280        -1.799221
 H         4.928132         0.385158         0.746528
 H         4.188637        -2.744823         0.988637
 H         5.061296        -1.673594         2.149917
 H         3.056553        -0.184216         2.377707
