19
Iteration:  2543charge 0 multiplicity 1
 C         0.416839         0.394320         0.214862
 C         1.490323        -0.604034        -0.208405
 C         1.584941        -1.259941        -1.576738
 C         2.498862        -0.184817        -1.146726
 O         3.830006        -0.601238        -0.867421
 C         4.212340        -0.306100         0.455515
 C         4.442161        -1.528613         1.398859
 C         3.142445        -0.790725         1.469205
 O         1.987554        -1.517688         0.785460
 H         0.071148         0.200861         1.291841
 H         0.857381         1.410232         0.058308
 H        -0.590234         0.260589        -0.203213
 H         2.006870        -2.368367        -1.541182
 H         0.880017        -1.121606        -2.433540
 H         2.588618         0.744515        -1.758176
 H         4.556255         0.596241         0.786880
 H         4.532384        -2.551894         0.948355
 H         5.085054        -1.179732         2.238530
 H         2.913267        -0.164674         2.359073
