19
Iteration:  1416
 C         0.379975         0.251325         0.334290
 C         1.444654        -0.653180        -0.269505
 C         1.523909        -1.128252        -1.677664
 C         2.576746        -0.113317        -1.215448
 O         3.852625        -0.672609        -0.921686
 C         4.285972        -0.347050         0.476574
 C         4.463977        -1.473016         1.536440
 C         3.141562        -0.798712         1.501648
 O         1.956995        -1.465443         0.762901
 H         0.787742         0.952122         1.175363
 H        -0.152626         0.823949        -0.417617
 H        -0.462781        -0.368087         0.584013
 H         1.807974        -2.172476        -1.879747
 H         0.760953        -0.745087        -2.360288
 H         2.637352         0.917303        -1.481096
 H         4.949566         0.601276         0.451357
 H         4.501439        -2.507817         1.166939
 H         5.022779        -1.290708         2.478800
 H         2.830201        -0.291722         2.298147
