19
Iteration:  3287
 C         0.369967         0.321647         0.358300
 C         1.544778        -0.577704        -0.269226
 C         1.547940        -1.224819        -1.574004
 C         2.556655        -0.103113        -1.180606
 O         3.870962        -0.602748        -0.929680
 C         4.155617        -0.385113         0.448676
 C         4.370804        -1.580223         1.506615
 C         3.141763        -0.764998         1.396706
 O         2.044100        -1.442360         0.728074
 H         0.345937         1.396640         0.120639
 H        -0.551830        -0.212850         0.053417
 H         0.438101         0.062076         1.447340
 H         2.021117        -2.228813        -1.564211
 H         0.787195        -1.026943        -2.244397
 H         2.573414         0.818305        -1.685518
 H         4.769754         0.385899         0.734485
 H         4.363044        -2.637527         1.124397
 H         4.934992        -1.320323         2.387421
 H         2.867579        -0.171958         2.320498
