19
Iteration:   583
 C         0.489266         0.315001         0.331669
 C         1.507328        -0.582652        -0.228180
 C         1.558900        -1.198890        -1.609805
 C         2.594574        -0.200324        -1.162152
 O         3.903057        -0.688953        -0.826912
 C         4.078255        -0.286099         0.504974
 C         4.446564        -1.358243         1.366025
 C         3.065717        -0.849900         1.462154
 O         1.958161        -1.537186         0.695002
 H         0.950710         1.154385         1.013208
 H        -0.028411         0.787730        -0.383220
 H        -0.153487        -0.419390         0.908238
 H         1.795588        -2.268775        -1.645818
 H         0.756035        -0.755390        -2.199701
 H         2.654136         0.783833        -1.632230
 H         4.463239         0.807177         0.612277
 H         4.432782        -2.302332         0.819340
 H         5.051018        -1.549550         2.227403
 H         2.849871        -0.125351         2.127754
