19
Iteration:  2500
 C         0.500356         0.292777         0.366274
 C         1.585625        -0.555495        -0.237734
 C         1.488342        -1.269010        -1.579587
 C         2.598904        -0.192764        -1.231880
 O         3.897270        -0.601164        -0.901083
 C         4.138134        -0.322454         0.478640
 C         4.347070        -1.471215         1.484591
 C         3.007270        -0.770914         1.442135
 O         2.039537        -1.470202         0.758796
 H         0.325324         0.247675         1.483639
 H         0.674853         1.321884         0.009200
 H        -0.324046        -0.198959        -0.049300
 H         1.686635        -2.407907        -1.680314
 H         0.791780        -0.977309        -2.400706
 H         2.428901         0.665990        -1.922621
 H         4.779862         0.475828         0.492967
 H         4.295235        -2.377690         0.846072
 H         5.136120        -1.377686         2.224282
 H         2.669537        -0.191395         2.320544
