19
Iteration:  4658charge 0 multiplicity 1
 C         0.440203         0.433170         0.131926
 C         1.585247        -0.551475        -0.223333
 C         1.546272        -1.379367        -1.532373
 C         2.484232        -0.233140        -1.228877
 O         3.895006        -0.452093        -0.792793
 C         4.095698        -0.245940         0.586171
 C         4.427272        -1.659687         1.172826
 C         3.147507        -0.962574         1.563890
 O         1.920115        -1.347886         0.851285
 H         0.133180         0.902930        -0.735368
 H        -0.325023        -0.155697         0.521873
 H         0.967861         1.117729         0.862088
 H         1.872873        -2.437727        -1.289630
 H         0.803430        -1.220106        -2.223141
 H         2.501453         0.753198        -1.727859
 H         4.919476         0.608992         0.740226
 H         4.484393        -2.484145         0.436810
 H         5.222311        -1.788347         1.926491
 H         3.092122        -0.730946         2.630587
