19
Iteration:  1389charge 0 multiplicity 1
 C         0.363753         0.206850         0.377900
 C         1.516911        -0.559173        -0.184726
 C         1.515015        -1.104996        -1.601019
 C         2.639337        -0.149658        -1.214209
 O         3.852505        -0.705158        -0.857753
 C         4.164184        -0.326531         0.464972
 C         4.385898        -1.503110         1.424766
 C         3.093122        -0.768454         1.417220
 O         2.129104        -1.454769         0.739550
 H         0.452478         0.843710         1.199174
 H        -0.119239         0.746355        -0.500164
 H        -0.640329        -0.382816         0.293660
 H         1.713215        -2.161540        -1.831202
 H         0.832488        -0.799567        -2.418169
 H         2.850089         0.768592        -1.863607
 H         4.604134         0.604696         0.608971
 H         4.195135        -2.579068         1.294246
 H         5.061955        -1.387462         2.271584
 H         2.653916        -0.067676         2.334268
