19
Iteration:  2218
 C         0.490553         0.365214         0.269217
 C         1.500976        -0.646413        -0.288031
 C         1.470269        -1.126470        -1.678486
 C         2.591871        -0.178997        -1.210699
 O         3.892348        -0.632971        -0.825301
 C         4.068642        -0.283862         0.578493
 C         4.485833        -1.484364         1.466146
 C         3.023513        -0.854160         1.452247
 O         2.065721        -1.572007         0.744213
 H         0.938038         1.225433         0.903584
 H        -0.212719         0.712548        -0.468621
 H        -0.070006        -0.042749         1.102720
 H         1.515983        -2.235475        -1.766869
 H         0.731686        -0.775792        -2.391372
 H         2.802761         0.754526        -1.659534
 H         4.595111         0.771742         0.841100
 H         4.371053        -2.440930         1.032816
 H         5.265029        -1.293528         2.134591
 H         2.595412        -0.328021         2.215348
