19
Iteration:  3117
 C         0.261036         0.252593         0.120736
 C         1.471127        -0.665873        -0.144617
 C         1.582983        -1.213541        -1.592590
 C         2.535538        -0.146563        -1.104817
 O         3.825831        -0.600254        -0.913824
 C         4.278818        -0.362406         0.487678
 C         4.453655        -1.652380         1.336206
 C         3.203728        -0.690315         1.453612
 O         2.000832        -1.367250         0.922564
 H         0.212987         0.509193         1.162340
 H         0.526969         1.306160        -0.256012
 H        -0.610886        -0.187186        -0.370894
 H         1.901537        -2.254130        -1.639229
 H         0.974239        -0.897053        -2.345840
 H         2.454450         0.910125        -1.374663
 H         4.868939         0.562847         0.706017
 H         4.114202        -2.495541         0.718566
 H         5.298931        -1.531470         1.993242
 H         3.027125        -0.134123         2.313753
