19
Iteration:  4948
 C         0.182025         0.194827         0.225519
 C         1.454987        -0.521350        -0.233192
 C         1.595152        -1.172607        -1.599393
 C         2.615725        -0.131736        -1.130181
 O         3.987720        -0.606436        -0.904856
 C         4.340139        -0.476422         0.453120
 C         4.268556        -1.715627         1.326582
 C         3.179047        -0.683777         1.543214
 O         2.004804        -1.237111         0.893225
 H        -0.014787         0.947458        -0.604249
 H        -0.529738        -0.629094         0.115378
 H         0.270833         0.643895         1.208350
 H         1.879354        -2.208719        -1.703017
 H         0.684778        -0.995299        -2.309453
 H         2.617146         0.848974        -1.602045
 H         5.259940         0.097381         0.624941
 H         3.902458        -2.647008         0.857908
 H         5.183343        -1.740214         1.991243
 H         2.684750        -0.160041         2.300554
