19
Iteration:  3652
 C         0.205340         0.221922         0.223171
 C         1.461838        -0.500591        -0.202655
 C         1.655585        -1.152301        -1.479838
 C         2.552677        -0.054124        -1.151378
 O         3.947623        -0.637337        -0.863973
 C         4.246340        -0.412409         0.464262
 C         4.345559        -1.679906         1.298432
 C         3.171420        -0.805808         1.431491
 O         1.998521        -1.326044         0.849537
 H         0.065785         1.122441        -0.536110
 H        -0.544383        -0.447826        -0.146713
 H         0.307103         0.568642         1.292989
 H         2.059508        -2.199272        -1.499409
 H         0.998317        -1.168545        -2.271574
 H         2.679980         0.855272        -1.703259
 H         4.816769         0.386465         0.856823
 H         4.243114        -2.458923         0.538704
 H         4.898492        -1.908115         2.160335
 H         3.112310        -0.161973         2.258366
