19
Iteration:  4086
 C         0.406946         0.345519         0.270358
 C         1.468372        -0.567430        -0.235888
 C         1.568726        -1.223576        -1.552899
 C         2.537595        -0.137322        -1.193828
 O         3.862820        -0.605371        -0.839441
 C         4.218078        -0.336796         0.548507
 C         4.396476        -1.591574         1.377789
 C         3.138241        -0.806967         1.473039
 O         2.011165        -1.473711         0.700279
 H        -0.068745         0.834191        -0.584887
 H        -0.396812        -0.024766         0.944206
 H         0.702012         1.101407         0.995818
 H         1.845776        -2.307422        -1.613074
 H         0.909361        -0.832556        -2.431455
 H         2.565702         0.861841        -1.657188
 H         4.726574         0.546181         0.688200
 H         4.431739        -2.604037         0.854652
 H         5.093533        -1.747497         2.245211
 H         2.833213        -0.178010         2.254060
