19
Iteration:   976
 C         0.188593         0.281182         0.061895
 C         1.404644        -0.571789        -0.223361
 C         1.605555        -1.407682        -1.504436
 C         2.476235        -0.166414        -1.209936
 O         3.946851        -0.346099        -0.797996
 C         4.265740        -0.421777         0.551267
 C         4.492287        -1.744921         1.189565
 C         3.218249        -0.947378         1.506608
 O         1.968714        -1.156940         0.946647
 H         0.528123         1.165639         0.657424
 H        -0.192910         0.698123        -0.794696
 H        -0.593538        -0.337991         0.523856
 H         2.213238        -2.285595        -1.444287
 H         0.977306        -1.345474        -2.352151
 H         2.381598         0.793948        -1.795272
 H         4.830466         0.422500         1.069256
 H         4.431296        -2.577124         0.525541
 H         5.193017        -1.638174         1.982775
 H         3.204331        -0.518105         2.513769
