19
Iteration:  2929
 C         0.255689         0.254906         0.127970
 C         1.435330        -0.593041        -0.162192
 C         1.661627        -1.267849        -1.566199
 C         2.485069        -0.104068        -1.116851
 O         3.896615        -0.500402        -0.890278
 C         4.203151        -0.421102         0.415563
 C         4.435330        -1.711001         1.365830
 C         3.237192        -0.770942         1.453984
 O         1.989709        -1.330297         0.925064
 H         0.544612         1.179664         0.731591
 H        -0.037882         0.843337        -0.764239
 H        -0.727585        -0.183278         0.492554
 H         2.123264        -2.194617        -1.715999
 H         0.994791        -1.019173        -2.359774
 H         2.440276         0.802160        -1.676464
 H         4.959604         0.396759         0.766503
 H         4.161908        -2.710692         0.953930
 H         5.222747        -1.623104         2.107128
 H         3.015512        -0.269728         2.412663
