19
Iteration:  3008charge 0 multiplicity 1
 C         0.444996         0.378175         0.273210
 C         1.503791        -0.640422        -0.223649
 C         1.542791        -1.231628        -1.605082
 C         2.537806        -0.186010        -1.265086
 O         3.838765        -0.529768        -0.887488
 C         4.172699        -0.398375         0.498655
 C         4.421705        -1.558158         1.491127
 C         3.122491        -0.843795         1.449411
 O         2.039323        -1.438537         0.743973
 H         0.825723         1.383122         0.453204
 H        -0.510257         0.348228        -0.392809
 H         0.016687         0.028852         1.253059
 H         1.910299        -2.217900        -1.606832
 H         0.749212        -0.941235        -2.220403
 H         2.490147         0.864003        -1.587214
 H         4.723129         0.513822         0.798079
 H         4.594606        -2.579107         1.193373
 H         4.925451        -1.305066         2.458145
 H         2.711072        -0.272582         2.232192
