19
Iteration:  1051charge 0 multiplicity 1
 C         0.200915         0.245506         0.118225
 C         1.485410        -0.648353        -0.227011
 C         1.531572        -1.219532        -1.573589
 C         2.521692        -0.114837        -1.190510
 O         3.854578        -0.488508        -0.832592
 C         4.274892        -0.429674         0.494977
 C         4.494063        -1.710098         1.411007
 C         3.198875        -0.832612         1.457306
 O         2.030485        -1.278218         0.900854
 H         0.398443         0.963368         0.955129
 H         0.139774         0.910602        -0.697140
 H        -0.768204        -0.417559         0.287587
 H         2.184218        -2.075886        -1.662725
 H         0.850968        -1.187207        -2.406652
 H         2.431195         0.922719        -1.686721
 H         4.873830         0.418948         0.734414
 H         4.437852        -2.636004         0.844679
 H         5.210991        -1.572724         2.218121
 H         3.029343         0.029553         2.159895
