19
Iteration:  4843
 C         0.599520         0.458705         0.316397
 C         1.537677        -0.534982        -0.237591
 C         1.592961        -1.344882        -1.568900
 C         2.580214        -0.240397        -1.286463
 O         3.898128        -0.488977        -0.863081
 C         4.043101        -0.359954         0.514872
 C         4.427957        -1.538825         1.389713
 C         3.026100        -0.916282         1.449637
 O         1.905403        -1.502229         0.761362
 H         0.011214         1.059667        -0.402998
 H        -0.264916         0.219518         0.967559
 H         1.060810         1.098791         1.137255
 H         1.937487        -2.334170        -1.484234
 H         0.817807        -1.026898        -2.351792
 H         2.447283         0.721792        -1.933297
 H         4.501175         0.643812         0.912927
 H         4.534266        -2.472579         0.800202
 H         5.087551        -1.415339         2.323297
 H         2.756986        -0.351780         2.436043
