19
Iteration:  2203charge 0 multiplicity 1
 C         0.447916         0.408540         0.233344
 C         1.471083        -0.585505        -0.205277
 C         1.474828        -1.196946        -1.614535
 C         2.604963        -0.221693        -1.156727
 O         3.888470        -0.648779        -0.762824
 C         4.141320        -0.249530         0.581027
 C         4.476902        -1.448112         1.380529
 C         3.104630        -0.910188         1.459141
 O         2.002444        -1.562963         0.651565
 H         0.917388         1.302645         0.595908
 H        -0.045986         0.791902        -0.710967
 H        -0.305987        -0.035449         0.875643
 H         1.751380        -2.220453        -1.761473
 H         0.812763        -0.715732        -2.366658
 H         2.318406         0.796255        -1.515545
 H         4.440435         0.694848         0.691371
 H         4.829289        -2.302439         0.692809
 H         4.985571        -1.502827         2.414196
 H         2.822799        -0.420587         2.451457
