19
Iteration:  2973
 C         0.252160         0.320361         0.197606
 C         1.511231        -0.590158        -0.139829
 C         1.617835        -1.134342        -1.589543
 C         2.660986        -0.235733        -1.158078
 O         3.855557        -0.702091        -0.829402
 C         4.149068        -0.264824         0.515656
 C         4.483106        -1.578609         1.289576
 C         3.127251        -0.869543         1.416958
 O         1.988890        -1.378268         0.828763
 H         0.450468         1.458617         0.326002
 H        -0.539230         0.392605        -0.609543
 H        -0.186782        -0.076619         1.196195
 H         1.916644        -2.093236        -1.756168
 H         0.814900        -0.925204        -2.249795
 H         2.622370         0.773674        -1.506480
 H         4.690066         0.785206         0.717505
 H         4.534043        -2.526010         0.686161
 H         5.014152        -1.520334         2.262126
 H         2.993784        -0.185583         2.274521
