19
Iteration:  4414charge 0 multiplicity 1
 C         0.203574         0.220174         0.168662
 C         1.505904        -0.634461        -0.152114
 C         1.612118        -1.142989        -1.627601
 C         2.544329        -0.064019        -1.117367
 O         3.923105        -0.537071        -0.922339
 C         4.286788        -0.476750         0.429121
 C         4.371903        -1.659282         1.371017
 C         3.190960        -0.765125         1.413390
 O         1.974600        -1.373594         0.956443
 H        -0.009591         0.858423        -0.738298
 H        -0.674067        -0.299863         0.619041
 H         0.385260         1.002817         0.916916
 H         1.896590        -2.284773        -1.693213
 H         0.802731        -0.892179        -2.335236
 H         2.707502         1.008559        -1.337570
 H         4.979803         0.285776         0.533618
 H         4.175262        -2.653015         0.963881
 H         5.120987        -1.444117         2.170726
 H         3.106062        -0.171092         2.252064
