19
Iteration:  2177charge 0 multiplicity 1
 C         0.393872         0.405560         0.160869
 C         1.467140        -0.558769        -0.258036
 C         1.616350        -1.247889        -1.578928
 C         2.593604        -0.099787        -1.201306
 O         3.867754        -0.569412        -0.828622
 C         4.072134        -0.339716         0.570504
 C         4.543012        -1.545955         1.304231
 C         3.152588        -0.962229         1.515731
 O         1.904030        -1.500654         0.826887
 H         0.748388         1.114207         0.950312
 H         0.129513         0.967916        -0.706586
 H        -0.562119        -0.110214         0.605970
 H         1.982488        -2.307049        -1.513131
 H         0.922935        -1.118689        -2.411494
 H         2.330281         0.862844        -1.599373
 H         4.534375         0.700924         0.803272
 H         4.768695        -2.450091         0.839755
 H         5.181545        -1.396702         2.134065
 H         2.986083        -0.391845         2.484872
