19
Iteration:  3271
 C         0.372007         0.250509         0.326636
 C         1.480352        -0.521555        -0.225842
 C         1.445338        -1.197822        -1.551082
 C         2.579124        -0.162507        -1.340251
 O         3.907541        -0.594052        -0.885566
 C         4.259855        -0.364379         0.545353
 C         4.378987        -1.557915         1.458198
 C         3.072077        -0.835857         1.498935
 O         2.129422        -1.440460         0.707896
 H         0.638478         1.342871         0.241849
 H        -0.715191         0.045027        -0.149449
 H         0.228945         0.360200         1.397840
 H         1.789417        -2.230092        -1.514037
 H         0.579200        -1.127078        -2.345367
 H         2.485761         0.895671        -1.772044
 H         4.698070         0.725634         0.624068
 H         4.310793        -2.501328         0.986506
 H         5.111275        -1.531097         2.289393
 H         2.676603        -0.187380         2.251687
