19
Iteration:  1185
 C         0.303943         0.255833         0.213597
 C         1.484988        -0.563375        -0.281657
 C         1.585717        -1.279215        -1.607417
 C         2.562161        -0.124601        -1.157901
 O         3.844738        -0.597261        -0.816869
 C         4.162435        -0.330655         0.518511
 C         4.520958        -1.563865         1.322608
 C         3.117218        -0.862567         1.474151
 O         1.977532        -1.374122         0.867808
 H         0.844078         0.754017         1.116860
 H         0.056358         1.105606        -0.442296
 H        -0.582278        -0.266634         0.356615
 H         2.124499        -2.252451        -1.621057
 H         0.940025        -0.874046        -2.395745
 H         2.425126         0.856082        -1.783054
 H         4.738233         0.660529         0.759301
 H         4.474681        -2.432886         0.644671
 H         5.305395        -1.631915         2.093743
 H         3.101534        -0.187540         2.393969
