19
Iteration:  4553
 C         0.250532         0.263801         0.405009
 C         1.411697        -0.549352        -0.191701
 C         1.568960        -1.144726        -1.679713
 C         2.671824        -0.135652        -1.203292
 O         3.964898        -0.705739        -0.887601
 C         4.257865        -0.409690         0.445040
 C         4.406376        -1.602500         1.471218
 C         3.115958        -0.747692         1.317407
 O         1.973228        -1.359653         0.799662
 H        -0.094679         1.034988        -0.361920
 H        -0.483755        -0.608811         0.621722
 H         0.440140         0.711311         1.433582
 H         1.905027        -2.228799        -1.749076
 H         0.696796        -0.766695        -2.171463
 H         2.671221         0.866442        -1.619434
 H         4.815648         0.476572         0.642939
 H         4.325143        -2.654559         1.119952
 H         5.142897        -1.345054         2.286907
 H         2.816135         0.037972         2.146237
