19
Iteration:  1569
 C         0.175335         0.189916         0.034126
 C         1.469591        -0.600852        -0.179899
 C         1.609201        -1.160337        -1.510197
 C         2.522094        -0.063146        -1.063305
 O         3.948573        -0.502857        -0.940232
 C         4.292655        -0.489469         0.527117
 C         4.432535        -1.706018         1.291817
 C         3.223152        -0.899059         1.478919
 O         1.958575        -1.215059         0.955105
 H         0.059112         1.109356         0.806718
 H        -0.131996         0.443541        -0.954474
 H        -0.523040        -0.533135         0.478822
 H         2.201399        -2.123780        -1.667980
 H         0.915057        -0.935704        -2.398915
 H         2.529762         0.851918        -1.596332
 H         4.778163         0.522882         0.787678
 H         4.227906        -2.586836         0.611680
 H         5.045368        -1.796875         2.237687
 H         3.131806        -0.139596         2.238509
