19
Iteration:  2080charge 0 multiplicity 1
 C         0.199107         0.181769         0.008324
 C         1.472804        -0.547913        -0.195521
 C         1.656048        -1.265487        -1.576842
 C         2.568948        -0.041396        -1.091821
 O         3.954803        -0.482573        -0.831746
 C         4.248153        -0.399960         0.508766
 C         4.406721        -1.782259         1.173668
 C         3.274676        -0.850925         1.491476
 O         1.872506        -1.190346         1.035968
 H         0.321367         0.923206         0.718116
 H        -0.164859         0.497638        -0.914351
 H        -0.452104        -0.554720         0.573698
 H         2.097347        -2.256789        -1.652571
 H         0.891299        -1.125788        -2.388747
 H         2.484148         0.995152        -1.419442
 H         4.777471         0.388131         0.737113
 H         4.302838        -2.611688         0.506216
 H         4.968208        -2.123244         2.010060
 H         3.060984        -0.305994         2.472155
