19
Iteration:  4825charge 0 multiplicity 1
 C         0.512047         0.517104         0.365842
 C         1.436383        -0.647912        -0.251855
 C         1.559971        -1.295793        -1.613555
 C         2.588146        -0.237598        -1.197142
 O         3.927640        -0.542419        -0.871036
 C         4.161138        -0.268443         0.553670
 C         4.295485        -1.560729         1.340052
 C         3.035775        -0.857620         1.459922
 O         2.032518        -1.499020         0.746927
 H         0.318870         1.057935        -0.510247
 H        -0.314073        -0.034778         0.795183
 H         1.318383         0.874178         1.026160
 H         1.865124        -2.384284        -1.445402
 H         0.873732        -1.227846        -2.376961
 H         2.426044         0.655074        -1.711496
 H         4.753402         0.725899         0.810024
 H         4.252468        -2.469949         0.792851
 H         4.952002        -1.434973         2.149216
 H         2.562188        -0.318061         2.286460
