19
Iteration:  3990
 C         0.328814         0.338597         0.129477
 C         1.530678        -0.583979        -0.217159
 C         1.490232        -1.189628        -1.563376
 C         2.525975        -0.155873        -1.241135
 O         3.942884        -0.573917        -0.864471
 C         4.155125        -0.333082         0.548364
 C         4.432188        -1.597530         1.304463
 C         3.196984        -0.865433         1.521687
 O         1.989637        -1.458359         0.924643
 H         0.221502         1.052592        -0.787181
 H        -0.597117        -0.158015         0.288962
 H         0.492883         0.925645         1.060212
 H         1.907655        -2.194211        -1.715043
 H         0.677844        -0.759212        -2.348320
 H         2.507872         0.853824        -1.585334
 H         4.690636         0.527372         0.780847
 H         4.484576        -2.548841         0.576351
 H         5.161626        -1.624603         2.181877
 H         3.052696        -0.348573         2.518971
