19
Iteration:  3201charge 0 multiplicity 1
 C         0.369837         0.334972         0.097416
 C         1.477903        -0.569773        -0.117585
 C         1.567498        -1.246605        -1.610319
 C         2.513774        -0.140031        -1.157995
 O         3.831962        -0.526926        -0.837673
 C         4.145530        -0.384461         0.507730
 C         4.452862        -1.559188         1.268759
 C         3.196352        -0.919505         1.481878
 O         2.022004        -1.419674         0.893826
 H         0.770588         1.297474         0.504484
 H        -0.243233         0.472448        -0.687035
 H        -0.190001         0.041530         0.996971
 H         1.981860        -2.267262        -1.537330
 H         0.882768        -1.158965        -2.382967
 H         2.422681         0.828209        -1.589761
 H         4.616387         0.651357         0.747818
 H         4.500903        -2.546927         0.718857
 H         5.186474        -1.566899         2.070295
 H         3.158911        -0.221207         2.342013
