19
Iteration:   601charge 0 multiplicity 1
 C         0.423962         0.342485         0.317021
 C         1.485271        -0.640057        -0.232555
 C         1.537978        -1.186783        -1.613125
 C         2.596743        -0.187420        -1.245921
 O         3.877371        -0.637857        -0.859559
 C         4.096927        -0.265782         0.512161
 C         4.475993        -1.502976         1.414544
 C         3.052654        -0.848070         1.419574
 O         2.033024        -1.501717         0.800167
 H         0.791997         1.039209         1.043484
 H         0.032109         1.145746        -0.442851
 H        -0.540292        -0.145310         0.720170
 H         1.829541        -2.205690        -1.658199
 H         0.905248        -1.017648        -2.457922
 H         2.652656         0.840089        -1.676880
 H         4.514466         0.623884         0.770116
 H         4.731083        -2.418177         0.904588
 H         5.183644        -1.143406         2.160358
 H         2.737365        -0.461191         2.441322
