19
Iteration:  4344charge 0 multiplicity 1
 C         0.372379         0.353726         0.288715
 C         1.428198        -0.598109        -0.233709
 C         1.562708        -1.183956        -1.567223
 C         2.603037        -0.197178        -1.189347
 O         3.958025        -0.552416        -0.860089
 C         4.171415        -0.369673         0.519128
 C         4.471986        -1.568451         1.376502
 C         3.079688        -0.892148         1.379411
 O         1.970968        -1.449050         0.790996
 H         0.177119         1.039998        -0.484297
 H        -0.534674        -0.163157         0.588744
 H         0.677343         0.859811         1.209762
 H         1.647381        -2.267859        -1.584064
 H         0.787742        -0.911136        -2.307274
 H         2.516096         0.861570        -1.539907
 H         4.681835         0.682820         0.674213
 H         4.394829        -2.496293         0.826230
 H         5.136732        -1.429529         2.251774
 H         2.821262        -0.118750         2.301811
