19
Iteration:  1613
 C         0.318376         0.255517         0.223343
 C         1.501769        -0.559264        -0.253611
 C         1.542234        -1.241053        -1.697503
 C         2.537661        -0.135016        -1.162515
 O         3.879533        -0.591978        -0.798582
 C         4.216641        -0.366908         0.574389
 C         4.439662        -1.638213         1.349322
 C         3.073235        -0.808684         1.483582
 O         2.043174        -1.361628         0.823643
 H         0.682465         0.993256         1.112830
 H         0.052397         0.902628        -0.636925
 H        -0.485516        -0.332834         0.629734
 H         2.199432        -2.179181        -1.677133
 H         0.751223        -0.990889        -2.488720
 H         2.563646         0.921544        -1.423422
 H         4.779391         0.653226         0.621828
 H         4.357745        -2.371971         0.522449
 H         5.312220        -1.596619         2.076093
 H         2.905417        -0.250558         2.378603
