19
Iteration:  4616charge 0 multiplicity 1
 C         0.338849         0.389870         0.167420
 C         1.412626        -0.612619        -0.184894
 C         1.610652        -1.176123        -1.635083
 C         2.553733        -0.143658        -1.051490
 O         3.838227        -0.641770        -0.914526
 C         4.269552        -0.392169         0.455351
 C         4.461834        -1.526506         1.366803
 C         3.185361        -0.884203         1.468185
 O         1.968068        -1.441892         0.864475
 H        -0.101311         0.958101        -0.639524
 H        -0.586511        -0.116690         0.444509
 H         0.541080         1.301548         0.850636
 H         1.848092        -2.263482        -1.538908
 H         0.913327        -1.002677        -2.347296
 H         2.500480         0.919939        -1.401831
 H         4.893554         0.587581         0.602017
 H         4.444329        -2.543702         0.918112
 H         5.227294        -1.420814         2.165636
 H         2.866656        -0.372928         2.428686
