19
Iteration:  4615
 C         0.330540         0.386157         0.171558
 C         1.419738        -0.613646        -0.201149
 C         1.609315        -1.169644        -1.627754
 C         2.544277        -0.141641        -1.052468
 O         3.830684        -0.647477        -0.916703
 C         4.278753        -0.393119         0.455715
 C         4.461409        -1.532080         1.372048
 C         3.175215        -0.877364         1.473904
 O         1.978757        -1.441170         0.861471
 H        -0.084715         0.930175        -0.638499
 H        -0.561903        -0.114941         0.440358
 H         0.560066         1.275266         0.866338
 H         1.859490        -2.242766        -1.517014
 H         0.906824        -0.986664        -2.361726
 H         2.546355         0.931677        -1.405295
 H         4.886134         0.617988         0.603950
 H         4.430843        -2.536371         0.948499
 H         5.228756        -1.444251         2.162144
 H         2.884390        -0.352608         2.399218
