19
Iteration:  2245charge 0 multiplicity 1
 C         0.518785         0.254422         0.387968
 C         1.506677        -0.650208        -0.255550
 C         1.603292        -1.180311        -1.679142
 C         2.585942        -0.084556        -1.171988
 O         3.870552        -0.638822        -0.970114
 C         4.157759        -0.316795         0.497240
 C         4.313550        -1.526649         1.538894
 C         3.027699        -0.785171         1.390490
 O         2.012955        -1.469636         0.748033
 H         0.869746         0.989499         1.040640
 H        -0.163078         0.791290        -0.352172
 H        -0.143351        -0.342740         1.140565
 H         1.922226        -2.208822        -1.769123
 H         0.853249        -0.960356        -2.483887
 H         2.583010         1.035915        -1.496203
 H         4.809293         0.513382         0.658816
 H         4.387957        -2.664092         1.308403
 H         5.016593        -1.320154         2.449150
 H         2.602589        -0.062413         2.267300
