19
Iteration:  4722
 C         0.293219         0.193586         0.124514
 C         1.538505        -0.532363        -0.204331
 C         1.615572        -1.195929        -1.581964
 C         2.575346        -0.073768        -1.199376
 O         3.869669        -0.529884        -0.901405
 C         4.174520        -0.467124         0.479235
 C         4.372015        -1.742399         1.358955
 C         3.197657        -0.763530         1.520627
 O         1.993960        -1.299936         0.941184
 H        -0.039987         0.775777        -0.780328
 H        -0.505006        -0.400958         0.570914
 H         0.611474         0.831459         1.029134
 H         1.942363        -2.307781        -1.715285
 H         0.760858        -0.931983        -2.127781
 H         2.485707         0.911065        -1.766656
 H         4.930289         0.388918         0.712447
 H         3.996331        -2.682201         0.892599
 H         5.244585        -1.707031         2.007550
 H         2.994022        -0.046079         2.289667
