19
Iteration:  3549charge 0 multiplicity 1
 C         0.475921         0.292781         0.311835
 C         1.533835        -0.561302        -0.303870
 C         1.444440        -1.228404        -1.649974
 C         2.563982        -0.148317        -1.232784
 O         3.902209        -0.561811        -0.835760
 C         4.159232        -0.340036         0.544609
 C         4.416037        -1.590976         1.442828
 C         3.034209        -0.846162         1.474469
 O         2.055514        -1.404832         0.738790
 H        -0.134396         0.813077        -0.365448
 H         0.008699        -0.399186         1.110552
 H         0.926253         1.108046         0.906502
 H         1.676399        -2.303465        -1.812104
 H         0.602180        -0.891053        -2.211876
 H         2.645675         0.643190        -1.958552
 H         4.806278         0.450921         0.837974
 H         4.392692        -2.646129         0.979801
 H         5.043909        -1.362730         2.323413
 H         2.617823        -0.305630         2.406738
