19
Iteration:  3570charge 0 multiplicity 1
 C         0.414797         0.407293         0.340994
 C         1.441563        -0.577449        -0.249940
 C         1.588827        -1.233736        -1.657822
 C         2.625201        -0.230801        -1.250176
 O         3.850063        -0.601971        -0.818177
 C         4.143279        -0.283931         0.567178
 C         4.438875        -1.580028         1.352473
 C         3.094425        -0.826418         1.463760
 O         2.005474        -1.488148         0.728763
 H        -0.111459         0.894425        -0.395163
 H        -0.172092         0.054324         1.249670
 H         0.853554         1.260661         0.822245
 H         1.858383        -2.294346        -1.495886
 H         0.984010        -0.984180        -2.497249
 H         2.455248         0.774973        -1.632601
 H         4.548254         0.682785         0.947695
 H         4.422841        -2.465453         0.584888
 H         5.103870        -1.654537         2.251927
 H         2.843228        -0.361606         2.507557
