19
Iteration:   287charge 0 multiplicity 1
 C         0.326498         0.321795         0.313986
 C         1.531488        -0.596706        -0.253218
 C         1.497332        -1.215283        -1.536919
 C         2.587738        -0.186579        -1.221787
 O         3.864961        -0.679944        -0.936908
 C         4.224304        -0.367944         0.507580
 C         4.421169        -1.438890         1.435415
 C         3.043107        -0.703018         1.526380
 O         2.123093        -1.509310         0.768317
 H         0.446993         0.600602         1.443348
 H         0.347931         1.168799        -0.269720
 H        -0.721718        -0.183650         0.179383
 H         1.771504        -2.264667        -1.654074
 H         0.951521        -0.936004        -2.464230
 H         2.371035         0.748221        -1.810197
 H         4.684735         0.716549         0.562237
 H         4.235846        -2.308242         0.773981
 H         5.255711        -1.633588         2.161391
 H         2.713087        -0.077100         2.235335
