19
Iteration:  3330
 C         0.369858         0.272081         0.109321
 C         1.536980        -0.596448        -0.153355
 C         1.540085        -1.125571        -1.622677
 C         2.544960        -0.129793        -1.134273
 O         3.838524        -0.651792        -0.842871
 C         4.187131        -0.316988         0.503602
 C         4.460648        -1.591248         1.352469
 C         3.132910        -0.880080         1.464240
 O         2.003588        -1.402195         0.869479
 H        -0.006279         0.794740        -0.803081
 H        -0.544583        -0.312471         0.624666
 H         0.780687         0.890568         0.963988
 H         1.920657        -2.065834        -2.018816
 H         0.696142        -0.699239        -2.083969
 H         2.521321         0.919010        -1.344326
 H         4.677950         0.586974         0.507958
 H         4.530963        -2.468336         0.671631
 H         5.167620        -1.591287         2.187036
 H         2.949317        -0.208493         2.358056
