19
Iteration:  1095charge 0 multiplicity 1
 C         0.446798         0.294283         0.306802
 C         1.519172        -0.590455        -0.177973
 C         1.568514        -1.194175        -1.601328
 C         2.626620        -0.150113        -1.193110
 O         3.933465        -0.708135        -0.832286
 C         4.082126        -0.272649         0.542148
 C         4.428148        -1.481882         1.349268
 C         3.051483        -0.784884         1.345210
 O         1.973127        -1.510598         0.779653
 H         0.768089         1.201291         0.877382
 H        -0.031795         0.736215        -0.508436
 H        -0.368173        -0.282184         0.880046
 H         1.913501        -2.204005        -1.659463
 H         0.689659        -0.995396        -2.176170
 H         2.617810         0.953700        -1.476028
 H         4.405831         0.746009         0.635706
 H         4.446088        -2.297580         0.646691
 H         5.057644        -1.439001         2.209762
 H         2.764004        -0.200620         2.275522
