19
Iteration:  3546
 C         0.476968         0.275721         0.302586
 C         1.538529        -0.553265        -0.288478
 C         1.433970        -1.230534        -1.650160
 C         2.598908        -0.133772        -1.214670
 O         3.909939        -0.564211        -0.859916
 C         4.146078        -0.372198         0.535162
 C         4.404903        -1.579280         1.437117
 C         3.033905        -0.814324         1.464846
 O         2.050287        -1.421908         0.738056
 H        -0.164046         0.755610        -0.365559
 H        -0.105044        -0.259231         1.078198
 H         0.906764         0.989882         0.923791
 H         1.698314        -2.294167        -1.718485
 H         0.591822        -0.809307        -2.132053
 H         2.577023         0.687789        -1.893995
 H         4.841276         0.474282         0.957744
 H         4.438590        -2.654499         1.059110
 H         5.049615        -1.345202         2.305270
 H         2.644676        -0.304908         2.406540
