19
Iteration:  3507charge 0 multiplicity 1
 C         0.268517         0.321083         0.236209
 C         1.486993        -0.640593        -0.211585
 C         1.630750        -1.142190        -1.670532
 C         2.553192        -0.077162        -1.078375
 O         3.814870        -0.684023        -0.890872
 C         4.244420        -0.395268         0.498868
 C         4.430182        -1.561548         1.402448
 C         3.154034        -0.763917         1.421279
 O         2.014617        -1.472130         0.841515
 H         0.318696         1.205535        -0.476870
 H        -0.726872        -0.213186         0.305823
 H         0.641290         0.863276         1.175290
 H         2.016260        -2.174888        -1.876871
 H         0.914306        -0.878773        -2.408620
 H         2.539372         0.991796        -1.406681
 H         4.693297         0.519029         0.505470
 H         4.418420        -2.560524         0.897772
 H         5.054125        -1.377547         2.271315
 H         3.078777        -0.199704         2.341147
