19
Iteration:   940charge 0 multiplicity 1
 C         0.315041         0.284384         0.042203
 C         1.524283        -0.611762        -0.108892
 C         1.606903        -1.330478        -1.449215
 C         2.509323        -0.151474        -1.089007
 O         4.016201        -0.401844        -0.877538
 C         4.180520        -0.350890         0.509520
 C         4.336559        -1.608590         1.132252
 C         3.111034        -0.885624         1.456730
 O         1.970740        -1.360176         0.959583
 H         0.628653         1.251074         0.233140
 H        -0.198157         0.430863        -0.952189
 H        -0.399914         0.037010         0.939895
 H         2.276068        -2.256548        -1.473961
 H         0.864245        -1.307637        -2.332517
 H         2.348090         0.828422        -1.635728
 H         4.653134         0.463228         0.850859
 H         4.211821        -2.573312         0.537124
 H         5.239773        -1.745617         1.847416
 H         3.022242        -0.503740         2.475818
