19
Iteration:  2790
 C         0.343651         0.308093         0.373976
 C         1.435157        -0.585332        -0.254917
 C         1.570606        -1.251466        -1.639707
 C         2.575465        -0.236583        -1.208616
 O         3.848241        -0.654044        -0.884167
 C         4.282253        -0.330481         0.460251
 C         4.403997        -1.512357         1.422620
 C         3.130794        -0.732934         1.412131
 O         2.000395        -1.428792         0.826728
 H         0.042154         0.042478         1.391833
 H         0.613835         1.407408         0.616081
 H        -0.423857         0.204733        -0.428221
 H         1.866998        -2.286354        -1.724359
 H         0.958089        -0.853418        -2.473183
 H         2.636862         0.733229        -1.756903
 H         4.875017         0.698565         0.502691
 H         4.339569        -2.624531         1.174225
 H         5.116915        -1.322926         2.301653
 H         2.929906        -0.017229         2.240414
