19
Iteration:  4758
 C         0.140093         0.204752         0.110250
 C         1.472608        -0.537325        -0.170653
 C         1.658149        -1.063677        -1.577819
 C         2.627343        -0.100503        -1.070312
 O         3.798076        -0.761546        -0.818258
 C         4.287420        -0.382379         0.482213
 C         4.477095        -1.628384         1.332479
 C         3.196986        -0.816067         1.365903
 O         1.949821        -1.324350         0.896471
 H        -0.138872         0.902871        -0.695629
 H        -0.606139        -0.580431         0.277778
 H         0.491616         0.992289         0.947877
 H         1.854370        -2.059997        -1.703881
 H         0.872762        -0.620719        -2.276844
 H         2.787045         0.848197        -1.622460
 H         5.024572         0.607957         0.501975
 H         4.502382        -2.682344         0.989021
 H         5.228886        -1.505484         2.148046
 H         3.134553        -0.080057         2.241345
