19
Iteration:  3207
 C         0.372850         0.366090         0.145725
 C         1.542576        -0.609292        -0.184092
 C         1.617254        -1.251508        -1.586647
 C         2.504111        -0.117133        -1.174689
 O         3.795426        -0.551688        -0.844143
 C         4.130451        -0.369720         0.465758
 C         4.500830        -1.566521         1.241328
 C         3.148934        -0.934261         1.508495
 O         2.001291        -1.432271         0.934156
 H         0.783047         1.404961         0.231988
 H        -0.320240         0.617748        -0.800731
 H        -0.095788         0.016216         1.078745
 H         2.163302        -2.182378        -1.468888
 H         0.841032        -0.977102        -2.426397
 H         2.341266         0.950609        -1.521384
 H         4.419244         0.592791         0.782878
 H         4.545414        -2.572118         0.927936
 H         5.220695        -1.414643         2.055663
 H         2.986953        -0.340071         2.429594
