19
Iteration:   735charge 0 multiplicity 1
 C         0.267895         0.293753         0.053466
 C         1.521742        -0.628138        -0.138216
 C         1.688601        -1.306880        -1.479239
 C         2.514093        -0.100148        -1.075163
 O         3.921274        -0.425120        -0.927473
 C         4.202542        -0.326023         0.450305
 C         4.339418        -1.732922         1.247253
 C         3.151737        -0.850289         1.507957
 O         1.968844        -1.342883         0.954949
 H         0.506027         1.386310         0.447453
 H        -0.264702         0.114031        -0.793772
 H        -0.417679        -0.244683         0.864245
 H         2.281343        -2.250363        -1.609324
 H         1.024489        -0.961322        -2.347930
 H         2.398765         0.871723        -1.607002
 H         4.956250         0.401447         0.620736
 H         4.292358        -2.478663         0.408927
 H         5.141749        -1.753975         2.069240
 H         3.044480        -0.410911         2.436319
