19
Iteration:  4214
 C         0.258238         0.203181         0.182331
 C         1.515510        -0.679211        -0.190894
 C         1.591402        -1.100008        -1.695836
 C         2.604381        -0.076478        -1.108120
 O         3.870700        -0.611166        -0.885568
 C         4.262125        -0.447238         0.501072
 C         4.330479        -1.656115         1.310698
 C         3.168609        -0.746304         1.482101
 O         2.030089        -1.344470         0.949151
 H         0.062099         0.936572        -0.624159
 H        -0.671809        -0.497719         0.065944
 H         0.405600         0.789823         1.085224
 H         2.007199        -2.128445        -1.872111
 H         0.713473        -0.636687        -2.059500
 H         2.615264         1.036421        -1.369526
 H         4.907756         0.521107         0.579045
 H         3.983493        -2.606527         0.902609
 H         5.119561        -1.694461         2.062373
 H         3.118225         0.162641         2.158830
