19
Iteration:  4393charge 0 multiplicity 1
 C         0.271729         0.190959         0.106142
 C         1.497114        -0.544310        -0.182768
 C         1.626988        -1.070302        -1.561829
 C         2.564598         0.000095        -1.062570
 O         3.773279        -0.711823        -0.925755
 C         4.236093        -0.451669         0.453176
 C         4.482746        -1.633616         1.363691
 C         3.192976        -0.808926         1.517553
 O         1.978412        -1.355781         0.890228
 H        -0.058213         0.912568        -0.717767
 H        -0.505949        -0.542905         0.429940
 H         0.319075         0.829179         1.063060
 H         2.224744        -2.005057        -1.903786
 H         0.874434        -0.980105        -2.362159
 H         2.644155         0.960090        -1.653325
 H         4.672994         0.498027         0.491346
 H         4.441487        -2.651022         0.952482
 H         5.276802        -1.409042         2.115103
 H         3.051863        -0.149072         2.275310
