19
Iteration:  4365
 C         0.266665         0.300015         0.189850
 C         1.507542        -0.555109        -0.201600
 C         1.470835        -1.101176        -1.654904
 C         2.580816        -0.197372        -1.170966
 O         3.867349        -0.716634        -0.827022
 C         4.275491        -0.286219         0.583018
 C         4.466349        -1.583038         1.291215
 C         3.171313        -0.850114         1.510893
 O         2.004331        -1.413222         0.836408
 H        -0.112442         0.978108        -0.531638
 H        -0.435372        -0.499743         0.325500
 H         0.366815         0.747076         1.234575
 H         1.880153        -2.079542        -1.852572
 H         0.848803        -0.587748        -2.424865
 H         2.759103         0.794655        -1.675132
 H         4.764102         0.771222         0.517035
 H         4.437005        -2.465339         0.678844
 H         5.074057        -1.461262         2.175063
 H         3.042169        -0.279921         2.553908
