19
Iteration:  4205charge 0 multiplicity 1
 C         0.297042         0.154749         0.129969
 C         1.533578        -0.580159        -0.154090
 C         1.644560        -1.072777        -1.624356
 C         2.561339        -0.100384        -1.170027
 O         3.914701        -0.567469        -0.938978
 C         4.272595        -0.482519         0.417178
 C         4.304472        -1.642534         1.349871
 C         3.156439        -0.717732         1.540984
 O         1.974814        -1.376431         0.960476
 H         0.089626         1.107264        -0.472820
 H        -0.696530        -0.490376         0.324354
 H         0.383172         0.509496         1.208185
 H         1.887713        -2.149064        -1.871761
 H         0.798676        -0.760857        -2.219661
 H         2.417965         0.928519        -1.471810
 H         4.872335         0.398902         0.577839
 H         4.091494        -2.646244         0.989083
 H         5.130374        -1.867588         2.102209
 H         2.996877        -0.058328         2.333700
