19
Iteration:  3016
 C         0.481719         0.381974         0.290752
 C         1.527610        -0.631439        -0.219283
 C         1.542485        -1.286634        -1.611550
 C         2.520264        -0.163157        -1.282492
 O         3.883066        -0.501510        -0.875054
 C         4.119265        -0.440741         0.519165
 C         4.350573        -1.559185         1.496452
 C         3.055895        -0.806531         1.392092
 O         2.091876        -1.466426         0.786483
 H         0.797113         1.477767         0.504623
 H        -0.224199         0.378938        -0.534430
 H         0.196276        -0.112592         1.284680
 H         1.742169        -2.274010        -1.790127
 H         0.723706        -0.846515        -2.162174
 H         2.385076         0.868078        -1.472822
 H         4.570365         0.657993         0.553827
 H         4.488608        -2.559305         1.041245
 H         5.030911        -1.229048         2.332436
 H         2.957816        -0.241172         2.350004
