19
Iteration:   979charge 0 multiplicity 1
 C         0.185778         0.281402         0.087727
 C         1.407444        -0.592415        -0.226404
 C         1.610852        -1.412569        -1.507683
 C         2.486659        -0.182833        -1.212917
 O         3.941136        -0.346796        -0.807661
 C         4.264964        -0.424371         0.557743
 C         4.474533        -1.754665         1.169241
 C         3.198844        -0.936627         1.518666
 O         1.970153        -1.132285         0.938805
 H         0.459534         1.218933         0.745132
 H        -0.181051         0.789928        -0.857971
 H        -0.473904        -0.451348         0.425939
 H         2.250409        -2.267564        -1.490874
 H         0.945237        -1.383198        -2.343168
 H         2.443807         0.828097        -1.599788
 H         4.936282         0.433884         1.082564
 H         4.568946        -2.618245         0.538561
 H         5.143370        -1.563836         1.969263
 H         3.213053        -0.473234         2.518432
