19
Iteration:  2775charge 0 multiplicity 1
 C         0.315470         0.314697         0.385099
 C         1.502016        -0.580313        -0.190042
 C         1.551882        -1.230533        -1.594505
 C         2.578192        -0.176943        -1.240146
 O         3.956069        -0.717327        -0.914507
 C         4.165629        -0.397676         0.412765
 C         4.361860        -1.457259         1.450042
 C         3.058226        -0.713669         1.426475
 O         2.090099        -1.414449         0.765949
 H         0.005094        -0.400481         1.214295
 H         0.812409         1.226275         0.604913
 H        -0.586117         0.607904        -0.194801
 H         1.989394        -2.206173        -1.409141
 H         0.774260        -1.160118        -2.292095
 H         2.513126         0.795261        -1.649198
 H         4.729508         0.482501         0.678372
 H         4.319956        -2.348939         0.943428
 H         5.040299        -1.423815         2.229198
 H         2.708314         0.002364         2.165269
