19
Iteration:   528
 C         0.371041         0.263366         0.213267
 C         1.504024        -0.567915        -0.199237
 C         1.536404        -1.178446        -1.572982
 C         2.526481        -0.183453        -1.186728
 O         3.888829        -0.553175        -0.904468
 C         4.222392        -0.385898         0.469408
 C         4.365920        -1.548037         1.429784
 C         3.106818        -0.784392         1.461662
 O         2.051031        -1.488131         0.808613
 H         0.695203         1.173089         0.822245
 H        -0.021827         0.692053        -0.576244
 H        -0.456953        -0.261805         0.763339
 H         2.000813        -2.137601        -1.643132
 H         0.799613        -1.095170        -2.354363
 H         2.533937         0.863393        -1.490512
 H         4.750767         0.631336         0.700304
 H         4.488211        -2.542151         1.040148
 H         4.977981        -1.260883         2.280351
 H         3.036662        -0.218606         2.322800
