19
Iteration:  1603
 C         0.256067         0.238440         0.191167
 C         1.468502        -0.565283        -0.208173
 C         1.648727        -1.185101        -1.586295
 C         2.619915        -0.086196        -1.181122
 O         3.827657        -0.615490        -0.837343
 C         4.195040        -0.357757         0.516460
 C         4.417775        -1.617661         1.289097
 C         3.153839        -0.851354         1.536065
 O         2.030756        -1.342456         0.846306
 H         0.512290         1.074111         0.964745
 H        -0.212658         0.764488        -0.697812
 H        -0.513242        -0.417519         0.510658
 H         2.083299        -2.218280        -1.756140
 H         0.941669        -0.905049        -2.420476
 H         2.593536         0.778777        -1.825006
 H         4.788710         0.594805         0.858110
 H         4.295277        -2.568738         0.740829
 H         5.145848        -1.801323         2.119577
 H         2.951765        -0.302538         2.397463
