19
Iteration:  2334charge 0 multiplicity 1
 C         0.266572         0.359207         0.002352
 C         1.463171        -0.632200        -0.189536
 C         1.679126        -1.337736        -1.528486
 C         2.498534        -0.093023        -1.102843
 O         3.864824        -0.495711        -0.854651
 C         4.261016        -0.278828         0.516799
 C         4.432851        -1.726343         1.162179
 C         3.223969        -0.927105         1.481193
 O         1.916881        -1.311646         1.062050
 H         0.393365         0.861698         0.957295
 H         0.353957         1.028648        -0.883100
 H        -0.693414        -0.155196        -0.029356
 H         2.261498        -2.283434        -1.392933
 H         1.211321        -1.351227        -2.472550
 H         2.303097         0.969499        -1.449783
 H         4.709777         0.591714         0.722551
 H         4.428160        -2.545480         0.403006
 H         5.019577        -1.774001         2.124088
 H         3.037775        -0.218168         2.331300
