19
Iteration:  3740charge 0 multiplicity 1
 C         0.391160         0.436792         0.189785
 C         1.495365        -0.549050        -0.165414
 C         1.651345        -1.249528        -1.586297
 C         2.578146        -0.116687        -1.159471
 O         3.907650        -0.563141        -0.860113
 C         4.071938        -0.336090         0.536623
 C         4.533992        -1.595133         1.311870
 C         3.113652        -0.993859         1.405827
 O         1.890037        -1.476125         0.844994
 H        -0.275085         0.835614        -0.647122
 H        -0.255376        -0.071079         0.956376
 H         0.661137         1.463521         0.553646
 H         2.011576        -2.244267        -1.502915
 H         0.851872        -1.073558        -2.275993
 H         2.560904         0.896957        -1.491932
 H         4.435416         0.647482         0.712777
 H         4.579993        -2.483961         0.646359
 H         5.125957        -1.458802         2.256618
 H         2.951582        -0.476845         2.355669
