19
Iteration:   423
 C         0.289874         0.260782         0.058319
 C         1.442404        -0.621852        -0.195991
 C         1.599158        -1.336891        -1.469463
 C         2.522655        -0.152466        -1.188539
 O         3.929181        -0.408889        -0.865223
 C         4.259923        -0.380277         0.527576
 C         4.375345        -1.712609         1.206618
 C         3.159181        -0.810155         1.476826
 O         2.024729        -1.283444         0.990274
 H         0.457982         0.947315         0.893754
 H        -0.184898         0.746592        -0.954471
 H        -0.575590        -0.293642         0.365358
 H         2.296798        -2.141310        -1.338236
 H         0.796068        -1.340525        -2.191813
 H         2.363409         0.794803        -1.658276
 H         4.870188         0.397324         0.836436
 H         4.020275        -2.447173         0.515437
 H         5.131737        -1.938959         1.946063
 H         3.221237        -0.026772         2.325332
