19
Iteration:  4462
 C         0.380200         0.398127         0.260500
 C         1.461671        -0.547144        -0.269406
 C         1.672390        -1.350038        -1.448047
 C         2.520646        -0.174205        -1.230416
 O         3.896092        -0.439919        -0.868011
 C         4.134428        -0.339554         0.538996
 C         4.413205        -1.690297         1.247100
 C         3.099818        -0.947005         1.462750
 O         1.970748        -1.354122         0.824532
 H        -0.077118         0.966944        -0.557719
 H        -0.352542        -0.182720         0.827403
 H         0.803395         1.243113         1.028742
 H         2.108887        -2.275470        -1.191751
 H         1.022426        -1.179776        -2.304289
 H         2.606166         0.584458        -1.995697
 H         4.756456         0.596452         0.794410
 H         4.384419        -2.562151         0.602125
 H         5.142800        -1.621810         2.021153
 H         2.981391        -0.488461         2.448999
