19
Iteration:  1307charge 0 multiplicity 1
 C         0.303964         0.298708         0.046529
 C         1.476765        -0.567262        -0.078024
 C         1.631606        -1.313163        -1.428980
 C         2.570055        -0.218252        -1.107824
 O         3.890985        -0.382970        -0.830078
 C         4.237039        -0.279931         0.523064
 C         4.415512        -1.686736         1.176053
 C         3.134076        -0.874446         1.406821
 O         1.947846        -1.401382         0.870137
 H         0.557273         1.288961         0.561211
 H         0.093996         0.628782        -0.960306
 H        -0.438021        -0.190417         0.532786
 H         1.882594        -2.330211        -1.126741
 H         0.995814        -1.130949        -2.309885
 H         2.362606         0.735700        -1.574224
 H         4.919701         0.603435         0.870700
 H         4.250098        -2.439501         0.397467
 H         5.142907        -1.943552         1.947574
 H         3.021294        -0.403127         2.292855
