19
Iteration:  2351charge 0 multiplicity 1
 C         0.334557         0.296521         0.025205
 C         1.473315        -0.618230        -0.149577
 C         1.691550        -1.348734        -1.482078
 C         2.549181        -0.165866        -1.162104
 O         3.897023        -0.350490        -0.836117
 C         4.189581        -0.433457         0.505007
 C         4.415240        -1.710705         1.179392
 C         3.174933        -0.816320         1.511028
 O         1.897598        -1.279748         0.958918
 H         0.678547         0.907011         0.931028
 H         0.080616         0.848476        -0.886102
 H        -0.636787        -0.295447         0.226577
 H         2.170079        -2.315013        -1.591827
 H         0.738221        -1.331295        -2.083423
 H         2.407980         0.747632        -1.729328
 H         4.902926         0.485981         0.872043
 H         4.092544        -2.491380         0.466838
 H         5.258716        -1.820227         1.882507
 H         3.090072        -0.507491         2.549621
