19
Iteration:   356
 C         0.398939         0.332686         0.183142
 C         1.472892        -0.598438        -0.157979
 C         1.531536        -1.207947        -1.548364
 C         2.577074        -0.177919        -1.154346
 O         3.832479        -0.630972        -0.837618
 C         4.175713        -0.308279         0.498055
 C         4.427673        -1.495149         1.318418
 C         3.100651        -0.830497         1.455889
 O         2.090988        -1.491264         0.809062
 H         0.850537         1.289698         0.602997
 H        -0.275379         0.444098        -0.749204
 H        -0.259135        -0.028618         0.959274
 H         1.764898        -2.232045        -1.746825
 H         0.882047        -0.992801        -2.367196
 H         2.630117         0.780039        -1.634319
 H         4.651760         0.598787         0.753647
 H         4.476788        -2.365428         0.695713
 H         5.009363        -1.288486         2.188837
 H         2.721168        -0.259431         2.336351
