19
Iteration:  2456
 C         0.315830         0.322611         0.123793
 C         1.466715        -0.601365        -0.192594
 C         1.564409        -1.124992        -1.664312
 C         2.555904        -0.211739        -1.130530
 O         3.820613        -0.696158        -0.852857
 C         4.245233        -0.320588         0.548425
 C         4.555833        -1.487075         1.347778
 C         3.166922        -0.875877         1.482657
 O         1.946730        -1.432888         0.864855
 H         0.605426         1.022291         0.937594
 H         0.080227         0.974722        -0.682047
 H        -0.417264        -0.332609         0.487487
 H         1.849355        -2.168886        -1.824692
 H         0.810215        -0.707776        -2.397385
 H         2.430506         0.859033        -1.280994
 H         4.623331         0.599398         0.622172
 H         4.673931        -2.463487         0.917243
 H         5.118951        -1.355058         2.243034
 H         2.934938        -0.213069         2.321629
