19
Iteration:  2732charge 0 multiplicity 1
 C         0.384634         0.348613         0.211830
 C         1.385837        -0.664138        -0.241376
 C         1.454420        -1.278371        -1.656507
 C         2.524462        -0.210410        -1.179308
 O         3.910951        -0.660871        -0.903644
 C         4.196213        -0.299766         0.509523
 C         4.524013        -1.506055         1.448495
 C         3.176294        -0.749014         1.478382
 O         2.036753        -1.430964         0.872664
 H        -0.646129        -0.090351         0.307946
 H         0.751787         0.870928         1.090217
 H         0.139220         1.227879        -0.433112
 H         1.783737        -2.264995        -1.827744
 H         0.652633        -0.970417        -2.237346
 H         2.482989         0.786898        -1.553594
 H         4.668628         0.684121         0.540108
 H         4.472845        -2.452419         1.009365
 H         5.280596        -1.261319         2.098790
 H         2.941184        -0.190059         2.366414
