19
Iteration:  2955
 C         0.356367         0.230119         0.116667
 C         1.516916        -0.575372        -0.248676
 C         1.535744        -1.177781        -1.589317
 C         2.553066        -0.062355        -1.191914
 O         3.864172        -0.660092        -0.838475
 C         4.207149        -0.366918         0.466974
 C         4.475134        -1.596840         1.329052
 C         3.164034        -0.851112         1.528337
 O         1.962464        -1.330645         0.962052
 H         0.527657         1.228617         0.378549
 H        -0.440415         0.327418        -0.691632
 H        -0.219428        -0.293206         0.866641
 H         1.897545        -2.209564        -1.785783
 H         0.797684        -0.818900        -2.323440
 H         2.617772         0.941137        -1.698277
 H         4.656551         0.549257         0.731729
 H         4.492474        -2.422577         0.640269
 H         5.205287        -1.577562         2.176657
 H         2.977307        -0.499162         2.518591
