19
Iteration:  3438
 C         0.300168         0.347624         0.132116
 C         1.452571        -0.577193        -0.216202
 C         1.659779        -1.335501        -1.505899
 C         2.527746        -0.107908        -1.089493
 O         3.890522        -0.405785        -0.842071
 C         4.316233        -0.462145         0.461003
 C         4.416366        -1.689181         1.256925
 C         3.113679        -0.818193         1.466694
 O         1.933144        -1.363736         0.877188
 H         0.083715         1.035484        -0.625012
 H        -0.573627        -0.470101         0.198772
 H         0.521314         0.996225         0.953681
 H         2.016259        -2.305394        -1.426697
 H         0.953198        -1.231349        -2.363430
 H         2.423947         0.851743        -1.521585
 H         4.890747         0.418722         0.632417
 H         4.319484        -2.630923         0.743534
 H         5.254050        -1.769920         2.020599
 H         2.931069        -0.293943         2.484792
