19
Iteration:  4114
 C         0.473468         0.451526         0.184134
 C         1.504854        -0.638358        -0.206016
 C         1.618662        -1.276530        -1.648513
 C         2.493115        -0.117190        -1.183274
 O         3.889696        -0.489798        -0.872913
 C         4.129530        -0.365790         0.516365
 C         4.466629        -1.583692         1.281208
 C         3.142744        -0.979995         1.504609
 O         1.869502        -1.498305         0.896392
 H         0.004308         0.883196        -0.709343
 H        -0.370855         0.044405         0.917956
 H         0.995384         1.327332         0.669518
 H         2.132005        -2.179264        -1.533352
 H         0.813274        -0.976520        -2.295409
 H         2.531113         0.987155        -1.353914
 H         4.564073         0.703375         0.792896
 H         4.737090        -2.534770         0.911003
 H         5.060181        -1.427418         2.128650
 H         2.870938        -0.335781         2.428654
