19
Iteration:   263charge 0 multiplicity 1
 C         0.308772         0.338410         0.233940
 C         1.543052        -0.695072        -0.227173
 C         1.547373        -1.282467        -1.511983
 C         2.561635        -0.215964        -1.271503
 O         3.839092        -0.534057        -0.887584
 C         4.197207        -0.379643         0.505704
 C         4.445162        -1.582620         1.404943
 C         3.171578        -0.765455         1.404509
 O         2.007343        -1.324969         0.833332
 H         0.417619         0.402977         1.304442
 H         0.241629         1.340527        -0.248335
 H        -0.656710        -0.218270         0.168086
 H         1.856836        -2.332929        -1.682477
 H         0.758961        -1.043634        -2.269812
 H         2.502553         0.854468        -1.593638
 H         4.815943         0.544303         0.744394
 H         4.556945        -2.587589         1.035966
 H         4.999304        -1.410331         2.324155
 H         3.105801        -0.239440         2.336182
