19
Iteration:  1531charge 0 multiplicity 1
 C         0.333120         0.208230         0.077699
 C         1.508278        -0.572672        -0.180639
 C         1.712986        -1.307626        -1.500227
 C         2.491823        -0.073745        -1.156248
 O         3.906129        -0.418088        -0.865433
 C         4.196081        -0.408680         0.469041
 C         4.343705        -1.751868         1.184692
 C         3.170875        -0.829488         1.568811
 O         1.957864        -1.234445         0.961103
 H         0.529955         0.839091         0.888861
 H        -0.068333         0.788151        -0.830738
 H        -0.533857        -0.513886         0.299049
 H         2.249542        -2.241385        -1.570400
 H         0.992449        -1.269782        -2.292283
 H         2.274995         0.861507        -1.742013
 H         4.811913         0.390983         0.831782
 H         4.000164        -2.598618         0.639140
 H         5.103219        -2.168460         1.831932
 H         3.173576        -0.231649         2.581224
