19
Iteration:   281
 C         0.363592         0.259380         0.296659
 C         1.501298        -0.527613        -0.267274
 C         1.481479        -1.251164        -1.582153
 C         2.545772        -0.189010        -1.192055
 O         3.874454        -0.639232        -0.874163
 C         4.234554        -0.339542         0.481780
 C         4.410321        -1.500849         1.417829
 C         3.095414        -0.737080         1.507453
 O         2.119573        -1.459426         0.783822
 H         0.482753         0.491051         1.333398
 H         0.384066         1.257550        -0.361544
 H        -0.574810        -0.116457         0.057317
 H         1.754698        -2.306259        -1.587359
 H         0.786287        -1.026670        -2.364538
 H         2.306553         0.635150        -1.834957
 H         4.768857         0.524596         0.541045
 H         4.210922        -2.448509         0.913977
 H         5.207791        -1.421448         2.127760
 H         2.625236        -0.013438         2.391466
