19
Iteration:  3102
 C         0.306827         0.313202         0.064935
 C         1.467815        -0.600412        -0.133671
 C         1.486160        -1.185335        -1.556230
 C         2.565021        -0.187544        -1.102538
 O         3.883460        -0.614670        -0.841047
 C         4.217946        -0.354613         0.442191
 C         4.508726        -1.519254         1.318972
 C         3.188011        -0.862854         1.465432
 O         2.036423        -1.398472         0.906840
 H        -0.000306         0.444071         1.156444
 H         0.309893         1.179279        -0.478758
 H        -0.618591        -0.167575        -0.322350
 H         1.821598        -2.157875        -1.835951
 H         0.586908        -0.880262        -2.197349
 H         2.433788         0.780038        -1.590796
 H         4.735021         0.686514         0.551107
 H         4.421341        -2.475989         0.800595
 H         5.097979        -1.744472         2.264795
 H         3.053802        -0.123711         2.334557
