19
Iteration:  3897
 C         0.225669         0.337637         0.119646
 C         1.456094        -0.597610        -0.187686
 C         1.580174        -1.264688        -1.617791
 C         2.486948        -0.087458        -1.124871
 O         3.981464        -0.443628        -0.923490
 C         4.272787        -0.445782         0.504775
 C         4.448050        -1.713853         1.366848
 C         3.174427        -0.861859         1.474316
 O         1.963755        -1.358982         0.927172
 H        -0.108056         0.678056        -0.842529
 H        -0.583555        -0.224762         0.772611
 H         0.696595         1.030119         0.824270
 H         1.926487        -2.337157        -1.822270
 H         0.829278        -0.909819        -2.299115
 H         2.430463         0.949473        -1.535820
 H         4.953152         0.490253         0.719186
 H         4.341960        -2.651751         0.888652
 H         5.119343        -1.705808         2.143177
 H         2.981802        -0.298681         2.389315
