19
Iteration:  1391charge 0 multiplicity 1
 C         0.359351         0.200356         0.362325
 C         1.531261        -0.552035        -0.206096
 C         1.492996        -1.104210        -1.613144
 C         2.623928        -0.150944        -1.208011
 O         3.849359        -0.705168        -0.846999
 C         4.160710        -0.346878         0.481215
 C         4.397823        -1.511407         1.434383
 C         3.091757        -0.765734         1.413240
 O         2.141751        -1.439338         0.738891
 H         0.541155         0.871722         1.224058
 H        -0.109228         0.733440        -0.409810
 H        -0.648472        -0.426970         0.297394
 H         1.749536        -2.158264        -1.806026
 H         0.801980        -0.762536        -2.384736
 H         2.829424         0.769564        -1.867015
 H         4.577701         0.575988         0.627693
 H         4.226867        -2.561302         1.290487
 H         5.082018        -1.297220         2.251581
 H         2.645074        -0.096786         2.255040
