19
Iteration:  4656
 C         0.444385         0.440232         0.122994
 C         1.573785        -0.561978        -0.223933
 C         1.541299        -1.375957        -1.533885
 C         2.503655        -0.209557        -1.227953
 O         3.897814        -0.461385        -0.799582
 C         4.094136        -0.249297         0.582893
 C         4.439907        -1.648634         1.190957
 C         3.158857        -0.978800         1.563016
 O         1.911303        -1.346203         0.860227
 H         0.167896         0.859946        -0.806844
 H        -0.279917        -0.186407         0.583807
 H         0.933149         1.023326         0.871074
 H         1.816456        -2.430502        -1.269547
 H         0.712843        -1.199564        -2.249674
 H         2.465301         0.781900        -1.740464
 H         4.817315         0.587308         0.727974
 H         4.447743        -2.397191         0.441347
 H         5.219585        -1.791088         1.933198
 H         3.114373        -0.740086         2.571059
