19
Iteration:  2424
 C         0.296880         0.254272         0.105792
 C         1.540547        -0.559509        -0.172224
 C         1.671892        -1.191074        -1.556884
 C         2.571429        -0.117947        -1.227752
 O         3.839074        -0.572697        -0.899207
 C         4.226969        -0.349102         0.560128
 C         4.424475        -1.648487         1.292224
 C         3.124451        -0.842464         1.530170
 O         1.965816        -1.381514         0.916994
 H         0.611630         1.238995         0.568546
 H        -0.373887         0.290944        -0.718443
 H        -0.259197        -0.170828         0.887015
 H         2.083513        -2.177353        -1.747165
 H         0.809865        -1.004593        -2.279973
 H         2.331337         0.885715        -1.527034
 H         4.705907         0.556568         0.773106
 H         4.238014        -2.484371         0.658497
 H         5.081642        -1.731154         2.118126
 H         3.054029        -0.114159         2.325997
