19
Iteration:    75
 C         0.357030         0.400626         0.251587
 C         1.513066        -0.588676        -0.162675
 C         1.574125        -1.225904        -1.660371
 C         2.544222        -0.208967        -1.200964
 O         3.819343        -0.750632        -0.857215
 C         4.094903        -0.269524         0.461873
 C         4.506495        -1.427917         1.405361
 C         3.123585        -0.809021         1.498928
 O         2.090215        -1.532361         0.830873
 H         0.319569         0.610231         1.270672
 H         0.442126         1.468931        -0.383977
 H        -0.574748        -0.056043         0.015050
 H         1.852740        -2.249712        -1.816839
 H         0.753442        -0.849795        -2.277742
 H         2.585735         0.768574        -1.687101
 H         4.325145         0.724973         0.676339
 H         4.374930        -2.325554         0.786654
 H         5.362164        -1.392008         2.094105
 H         2.886925        -0.062832         2.339777
