19
Iteration:   640
 C         0.331629         0.297490         0.143699
 C         1.446570        -0.652209        -0.179485
 C         1.576472        -1.226902        -1.526223
 C         2.568656        -0.114458        -1.157899
 O         3.915794        -0.532077        -0.873799
 C         4.133727        -0.355755         0.513606
 C         4.421283        -1.603972         1.305272
 C         3.172383        -0.762428         1.440049
 O         2.021256        -1.459986         0.880384
 H         0.389271         0.666742         1.207512
 H         0.347736         1.013419        -0.707571
 H        -0.615989        -0.192088         0.014681
 H         1.998974        -2.264236        -1.549800
 H         0.722580        -1.037617        -2.235465
 H         2.414380         0.891177        -1.545474
 H         4.972173         0.502007         0.656376
 H         4.282685        -2.551520         0.740246
 H         5.117175        -1.393344         2.155341
 H         3.009844        -0.173833         2.410477
