19
Iteration:  2719
 C         0.335989         0.384625         0.153641
 C         1.497566        -0.682828        -0.175580
 C         1.501511        -1.263299        -1.545480
 C         2.563419        -0.240589        -1.136164
 O         3.836786        -0.643838        -0.865200
 C         4.186550        -0.305036         0.443293
 C         4.581056        -1.445507         1.318505
 C         3.180407        -0.811037         1.486382
 O         1.938528        -1.430006         0.875366
 H        -0.738101         0.059879         0.084147
 H         0.430985         0.709903         1.184229
 H         0.620844         1.062474        -0.624005
 H         1.943813        -2.228853        -1.695354
 H         0.843360        -0.886961        -2.410485
 H         2.516479         0.791178        -1.553886
 H         4.619183         0.613099         0.586823
 H         4.576725        -2.466855         0.894845
 H         5.133599        -1.411913         2.241911
 H         2.926330        -0.133291         2.314805
