19
Iteration:  4753charge 0 multiplicity 1
 C         0.125184         0.206743         0.130033
 C         1.468123        -0.520631        -0.165463
 C         1.653998        -1.074585        -1.614408
 C         2.603346        -0.076297        -1.072277
 O         3.819887        -0.762176        -0.777019
 C         4.326473        -0.384224         0.443653
 C         4.430699        -1.626228         1.313799
 C         3.204978        -0.802098         1.410353
 O         1.977223        -1.309022         0.897126
 H         0.014402         0.724089        -0.846114
 H        -0.662265        -0.535964         0.313615
 H         0.520509         0.769449         0.888358
 H         1.822799        -2.220593        -1.740022
 H         0.898135        -0.698193        -2.234470
 H         2.770769         0.884934        -1.604076
 H         4.940899         0.462970         0.418815
 H         4.420907        -2.603050         0.814027
 H         5.081683        -1.530277         2.165925
 H         3.120946        -0.215674         2.280411
