19
Iteration:  2637charge 0 multiplicity 1
 C         0.287133         0.206069         0.167868
 C         1.536423        -0.591067        -0.157784
 C         1.636447        -1.328402        -1.457370
 C         2.534852        -0.149805        -1.221292
 O         3.909696        -0.445638        -1.012627
 C         4.271819        -0.426271         0.520074
 C         4.305270        -1.727974         1.328356
 C         3.157468        -0.656247         1.466705
 O         1.988223        -1.315865         0.939825
 H        -0.616964        -0.301789         0.044154
 H         0.249899         0.705133         1.137863
 H         0.083344         1.111932        -0.406695
 H         2.113894        -2.277457        -1.327150
 H         0.810125        -1.280204        -2.038079
 H         2.483639         0.643693        -1.896733
 H         4.942059         0.497239         0.655886
 H         4.120523        -2.649290         0.834496
 H         5.179343        -1.651962         1.874552
 H         2.956424         0.047769         2.246732
