19
Iteration:  4804charge 0 multiplicity 1
 C         0.468856         0.392962         0.252857
 C         1.486815        -0.644105        -0.220137
 C         1.523992        -1.212620        -1.562725
 C         2.574314        -0.188061        -1.231842
 O         3.848557        -0.569159        -0.820021
 C         4.157144        -0.389911         0.521697
 C         4.417737        -1.574026         1.404480
 C         3.086288        -0.750275         1.423950
 O         2.014056        -1.470871         0.778170
 H         0.272602         1.091325        -0.581571
 H        -0.326883        -0.329415         0.462677
 H         0.963173         0.953860         1.059752
 H         1.819273        -2.270762        -1.831034
 H         0.918742        -0.827162        -2.312424
 H         2.517067         0.797453        -1.565817
 H         4.691336         0.546828         0.581315
 H         4.289819        -2.499637         0.909163
 H         5.058716        -1.596106         2.251928
 H         2.848843        -0.266297         2.354179
