19
Iteration:  3626
 C         0.292334         0.361876         0.106726
 C         1.484727        -0.630536        -0.233332
 C         1.523889        -1.179774        -1.607386
 C         2.511507        -0.163135        -1.183709
 O         3.858702        -0.508240        -0.812202
 C         4.239550        -0.416945         0.489908
 C         4.456185        -1.656420         1.324832
 C         3.213145        -0.885137         1.580163
 O         2.018398        -1.387920         0.892705
 H         0.168302         1.096750        -0.704542
 H        -0.624053        -0.271919         0.117224
 H         0.639382         0.906323         1.003342
 H         1.826298        -2.113209        -2.028837
 H         0.778032        -0.837552        -2.434020
 H         2.573292         0.919623        -1.505624
 H         4.744899         0.436809         0.893599
 H         4.350668        -2.604321         0.823741
 H         5.285226        -1.555384         2.061100
 H         3.006897        -0.229416         2.483644
