19
Iteration:  1668
 C         0.562056         0.374943         0.316500
 C         1.480154        -0.619164        -0.304803
 C         1.489840        -1.180639        -1.594673
 C         2.582328        -0.174584        -1.184192
 O         3.858939        -0.612372        -0.813959
 C         4.096849        -0.257963         0.575379
 C         4.476440        -1.412022         1.423277
 C         3.019615        -0.944970         1.425441
 O         2.025814        -1.575796         0.661141
 H         1.028967         0.852458         1.310222
 H         0.224007         1.173385        -0.418429
 H        -0.331292        -0.108724         0.638814
 H         1.912010        -2.228030        -1.625995
 H         0.670646        -1.027555        -2.387939
 H         2.679363         0.823848        -1.574493
 H         4.488567         0.786129         0.524717
 H         4.482878        -2.493090         1.153831
 H         5.005553        -1.217078         2.397720
 H         2.634279        -0.416704         2.253121
