19
Iteration:  3853charge 0 multiplicity 1
 C         0.258173         0.224648         0.150952
 C         1.540315        -0.528063        -0.189609
 C         1.501198        -1.109210        -1.597223
 C         2.665493        -0.134886        -1.145418
 O         3.836529        -0.732481        -0.802719
 C         4.230828        -0.360171         0.498535
 C         4.400583        -1.579089         1.294120
 C         3.148764        -0.817592         1.466058
 O         2.020752        -1.324685         0.858547
 H         0.063062         1.110458        -0.425361
 H        -0.457286        -0.666632         0.100151
 H         0.345379         0.352886         1.232888
 H         2.043294        -2.058056        -1.861572
 H         0.723847        -0.714550        -2.206332
 H         2.600023         0.885334        -1.513147
 H         4.827677         0.628653         0.675180
 H         4.451984        -2.453725         0.639958
 H         5.111375        -1.692411         2.040489
 H         3.067997        -0.254723         2.416509
