19
Iteration:  4369charge 0 multiplicity 1
 C         0.276005         0.273740         0.190251
 C         1.489728        -0.538140        -0.216894
 C         1.509281        -1.069105        -1.635936
 C         2.607489        -0.176697        -1.202130
 O         3.838136        -0.735745        -0.792212
 C         4.252050        -0.299982         0.557910
 C         4.476525        -1.577135         1.281487
 C         3.167403        -0.853018         1.500247
 O         2.035487        -1.388153         0.862375
 H        -0.064578         0.979504        -0.591865
 H        -0.480675        -0.570936         0.320487
 H         0.254210         0.745887         1.092871
 H         1.780756        -2.078578        -1.937074
 H         0.735359        -0.738744        -2.362519
 H         2.578223         0.850601        -1.529170
 H         4.765254         0.613678         0.572985
 H         4.451222        -2.539535         0.711478
 H         5.110322        -1.499245         2.173436
 H         2.993118        -0.329087         2.450141
