19
Iteration:  3475charge 0 multiplicity 1
 C         0.278701         0.252316         0.118318
 C         1.552104        -0.491578        -0.195234
 C         1.553550        -1.176134        -1.599105
 C         2.609208        -0.119793        -1.218163
 O         3.842024        -0.652309        -0.836934
 C         4.188264        -0.330518         0.508845
 C         4.497742        -1.635382         1.298481
 C         3.178306        -0.883522         1.527561
 O         1.975433        -1.350552         0.943821
 H         0.176756         1.187979        -0.641921
 H        -0.682457        -0.350378        -0.058632
 H         0.018527         0.405807         1.247056
 H         1.831727        -2.270015        -1.792057
 H         0.774049        -0.747735        -2.177388
 H         2.660451         0.913789        -1.721576
 H         4.560213         0.686925         0.673710
 H         4.539615        -2.432020         0.490232
 H         5.119868        -1.658083         2.179844
 H         3.069954        -0.504805         2.526475
