19
Iteration:   616charge 0 multiplicity 1
 C         0.401385         0.373891         0.219474
 C         1.488074        -0.586458        -0.219194
 C         1.560480        -1.252164        -1.665143
 C         2.496441        -0.189775        -1.167691
 O         3.845344        -0.560950        -0.856632
 C         4.203301        -0.339304         0.497156
 C         4.504540        -1.500327         1.414014
 C         3.131336        -0.897773         1.534079
 O         2.011154        -1.473056         0.781107
 H         0.744361         0.781909         1.280758
 H         0.235384         1.033911        -0.538226
 H        -0.596537        -0.201940         0.421871
 H         1.941934        -2.300183        -1.753892
 H         0.689050        -0.967446        -2.299213
 H         2.287359         0.775149        -1.639678
 H         4.706180         0.749968         0.520368
 H         4.465641        -2.505619         0.914833
 H         4.987151        -1.295811         2.380797
 H         2.850205        -0.257125         2.284146
