19
Iteration:  1096charge 0 multiplicity 1
 C         0.441539         0.301542         0.307440
 C         1.520458        -0.602215        -0.191554
 C         1.572618        -1.191025        -1.597385
 C         2.615448        -0.150319        -1.194473
 O         3.937103        -0.710398        -0.833391
 C         4.079166        -0.277404         0.544138
 C         4.430497        -1.480357         1.356338
 C         3.057600        -0.782197         1.347061
 O         1.975038        -1.514056         0.775078
 H         0.787335         1.240899         0.912346
 H        -0.029561         0.772702        -0.511866
 H        -0.324170        -0.281461         0.902716
 H         1.891098        -2.206561        -1.688634
 H         0.679255        -1.010742        -2.162387
 H         2.593463         0.973488        -1.481336
 H         4.389736         0.814269         0.637792
 H         4.440491        -2.308381         0.667566
 H         5.055117        -1.449656         2.217829
 H         2.757771        -0.210301         2.294618
