19
Iteration:  4698charge 0 multiplicity 1
 C         0.353648         0.364455         0.179294
 C         1.460064        -0.560352        -0.170436
 C         1.608563        -1.334089        -1.520799
 C         2.561611        -0.190474        -1.144488
 O         3.979271        -0.338386        -0.980243
 C         4.280281        -0.417336         0.479598
 C         4.324034        -1.749570         1.336127
 C         3.138345        -0.823391         1.438429
 O         1.911042        -1.382977         0.902257
 H        -0.041442         1.007806        -0.742367
 H        -0.505437        -0.211826         0.709064
 H         0.622341         0.993221         1.020469
 H         2.215263        -2.296653        -1.403985
 H         0.894415        -1.328166        -2.373160
 H         2.245177         0.775615        -1.552440
 H         4.994747         0.283402         0.751409
 H         4.171495        -2.713327         0.934132
 H         5.016470        -1.589437         2.151622
 H         2.864132        -0.271131         2.294477
