19
Iteration:  1558charge 0 multiplicity 1
 C         0.158752         0.179829         0.016490
 C         1.434872        -0.601843        -0.163684
 C         1.674648        -1.215255        -1.594319
 C         2.518492        -0.074376        -1.121681
 O         3.913112        -0.463867        -0.863487
 C         4.276174        -0.409548         0.461214
 C         4.414797        -1.810362         1.305874
 C         3.262346        -0.820861         1.481570
 O         1.967128        -1.213397         1.006239
 H         0.484517         1.048018         0.739929
 H        -0.223069         0.647716        -0.856780
 H        -0.670187        -0.438049         0.389174
 H         2.140149        -2.232964        -1.743909
 H         0.838560        -0.860556        -2.264563
 H         2.351158         0.907574        -1.526035
 H         4.959528         0.468042         0.726640
 H         4.168216        -2.759310         0.746663
 H         5.163407        -1.946415         2.133371
 H         3.263498        -0.388133         2.470187
