19
Iteration:   704charge 0 multiplicity 1
 C         0.204228         0.196723         0.057985
 C         1.455954        -0.567963        -0.240225
 C         1.626087        -1.256581        -1.523788
 C         2.506988        -0.071998        -1.155118
 O         3.908301        -0.456638        -0.858954
 C         4.237981        -0.386222         0.498683
 C         4.478326        -1.763528         1.261995
 C         3.224540        -0.831841         1.535804
 O         1.944139        -1.245332         0.984790
 H         0.216277         1.243620         0.632685
 H        -0.311664         0.393284        -0.851611
 H        -0.444306        -0.541401         0.657262
 H         2.170167        -2.220206        -1.402171
 H         1.028064        -0.999880        -2.430492
 H         2.333437         0.819359        -1.759465
 H         5.095056         0.398470         0.643367
 H         4.476479        -2.615747         0.555360
 H         5.271592        -2.123655         1.968000
 H         3.153152        -0.361863         2.475997
