19
Iteration:    24
 C         0.311651         0.348628         0.314280
 C         1.478260        -0.575298        -0.146774
 C         1.567629        -1.225537        -1.485225
 C         2.635742        -0.212587        -1.248088
 O         4.007132        -0.608996        -1.024138
 C         4.165424        -0.360046         0.400395
 C         4.348068        -1.434732         1.393962
 C         3.031010        -0.792205         1.526713
 O         2.039167        -1.541072         0.812982
 H         0.436657         0.706826         1.400511
 H         0.313992         1.162314        -0.288424
 H        -0.692622        -0.159632         0.220407
 H         1.982123        -2.207475        -1.502011
 H         0.836447        -1.030673        -2.286967
 H         2.627743         0.784590        -1.664668
 H         4.698603         0.616354         0.609373
 H         4.212335        -2.416265         1.077376
 H         5.064410        -1.350396         2.195795
 H         2.770763        -0.120380         2.264455
