19
Iteration:   525
 C         0.366456         0.253147         0.211891
 C         1.489791        -0.580819        -0.180566
 C         1.552402        -1.169085        -1.556424
 C         2.528386        -0.180634        -1.195605
 O         3.902227        -0.557009        -0.894819
 C         4.236461        -0.381733         0.442746
 C         4.355853        -1.538732         1.401538
 C         3.114318        -0.804326         1.486747
 O         2.050700        -1.470389         0.814139
 H         0.676767         1.089004         0.877463
 H        -0.079798         0.720248        -0.725370
 H        -0.527397        -0.205691         0.748638
 H         2.031609        -2.143074        -1.642711
 H         0.792395        -1.083076        -2.321206
 H         2.559741         0.864257        -1.591295
 H         4.671257         0.503678         0.766363
 H         4.427287        -2.519463         0.926906
 H         4.890026        -1.266663         2.325351
 H         3.028968        -0.128909         2.317674
