19
Iteration:  4434
 C         0.321846         0.282361         0.204944
 C         1.495985        -0.599185        -0.239044
 C         1.531828        -1.253584        -1.525486
 C         2.508207        -0.192209        -1.207469
 O         3.944353        -0.435913        -0.871181
 C         4.257477        -0.419562         0.516021
 C         4.369253        -1.698856         1.314561
 C         3.131618        -0.781735         1.470341
 O         2.039930        -1.322188         0.858954
 H        -0.212426         0.775608        -0.609647
 H        -0.346125        -0.521502         0.619564
 H         0.553683         0.913757         0.926736
 H         1.980628        -2.283262        -1.544854
 H         0.867195        -0.763749        -2.210999
 H         2.521417         0.771028        -1.678139
 H         4.959218         0.317462         0.789506
 H         3.881400        -2.517866         0.751573
 H         5.141513        -1.909970         2.085049
 H         2.953767        -0.120654         2.377524
