19
Iteration:  1983
 C         0.467378         0.247697         0.380121
 C         1.531199        -0.615693        -0.259591
 C         1.535403        -1.212965        -1.606941
 C         2.603015        -0.150451        -1.239801
 O         3.917014        -0.648545        -0.827540
 C         4.076483        -0.316700         0.503562
 C         4.369104        -1.497676         1.422612
 C         3.051950        -0.789024         1.443473
 O         2.035301        -1.417688         0.720684
 H         0.910342         0.637104         1.238664
 H         0.389117         1.060828        -0.331587
 H        -0.589155        -0.230261         0.625099
 H         1.965328        -2.179083        -1.865400
 H         0.663718        -0.907474        -2.257669
 H         2.596320         0.765022        -1.827001
 H         4.503946         0.662269         0.535332
 H         4.418780        -2.402140         0.839721
 H         4.910324        -1.570147         2.323596
 H         2.820710        -0.192141         2.422031
