19
Iteration:  4693charge 0 multiplicity 1
 C         0.354347         0.364538         0.169006
 C         1.430446        -0.544131        -0.188556
 C         1.633144        -1.382537        -1.518116
 C         2.541150        -0.187372        -1.117372
 O         4.001764        -0.338179        -0.952745
 C         4.244792        -0.381927         0.452337
 C         4.348583        -1.759451         1.337554
 C         3.162490        -0.825143         1.444274
 O         1.903142        -1.404216         0.876486
 H        -0.031780         1.105491        -0.481646
 H        -0.538464         0.011800         0.682394
 H         0.659257         1.156064         0.926410
 H         2.059854        -2.328190        -1.325845
 H         0.894318        -1.363305        -2.328406
 H         2.255064         0.766928        -1.567722
 H         5.026535         0.397668         0.818827
 H         4.157182        -2.734461         0.799509
 H         5.110711        -1.783833         2.142853
 H         2.790990        -0.182043         2.317043
