19
Iteration:  3975
 C         0.360300         0.387237         0.174938
 C         1.453863        -0.608913        -0.195178
 C         1.547836        -1.276511        -1.566663
 C         2.617054        -0.213633        -1.138964
 O         3.920599        -0.469283        -0.872103
 C         4.204989        -0.345122         0.547698
 C         4.494501        -1.616182         1.277134
 C         3.099030        -0.966858         1.461060
 O         1.904818        -1.331015         0.861069
 H         0.216718         0.986205        -0.713605
 H        -0.398923        -0.390091         0.540700
 H         0.788651         0.983817         0.972792
 H         1.801566        -2.342410        -1.435651
 H         0.727483        -0.982945        -2.339350
 H         2.440656         0.751803        -1.743247
 H         4.667951         0.679259         0.694065
 H         4.514577        -2.519861         0.725858
 H         5.215864        -1.604925         2.077861
 H         2.924707        -0.501734         2.396262
