19
Iteration:  1837charge 0 multiplicity 1
 C         0.293438         0.323509        -0.032263
 C         1.536676        -0.594047        -0.139544
 C         1.594500        -1.383171        -1.489883
 C         2.448024        -0.202835        -1.227108
 O         3.901713        -0.235120        -0.806408
 C         4.269551        -0.349280         0.553957
 C         4.392171        -1.814359         1.143164
 C         3.253408        -0.874534         1.554524
 O         1.946856        -1.293398         0.984241
 H         0.588785         1.221834         0.482750
 H        -0.071698         0.557177        -1.035542
 H        -0.545228        -0.294513         0.312083
 H         1.927770        -2.383142        -1.343963
 H         0.880697        -1.305919        -2.322731
 H         2.366531         0.864134        -1.568118
 H         4.995502         0.394556         0.935602
 H         4.003771        -2.637920         0.453662
 H         5.102586        -2.127774         1.951055
 H         3.161534        -0.507968         2.662533
