19
Iteration:  1336charge 0 multiplicity 1
 C         0.354785         0.328858         0.054906
 C         1.490925        -0.614729        -0.193332
 C         1.614671        -1.255355        -1.579204
 C         2.495728        -0.163343        -1.222893
 O         3.793094        -0.447952        -0.887587
 C         4.193885        -0.331140         0.541746
 C         4.490326        -1.637042         1.328583
 C         3.150274        -0.925394         1.543557
 O         2.008894        -1.403235         0.939918
 H         0.639332         1.019406         0.908992
 H         0.149928         1.054856        -0.699152
 H        -0.602628        -0.129423         0.699877
 H         1.975445        -2.274898        -1.726897
 H         0.781721        -1.125078        -2.290949
 H         2.359083         0.856673        -1.751569
 H         4.819057         0.474490         0.751628
 H         4.656295        -2.526601         0.710229
 H         5.337136        -1.571363         2.007923
 H         3.000612        -0.409693         2.592451
