19
Iteration:  2481
 C         0.335818         0.354977         0.250899
 C         1.453062        -0.574986        -0.217148
 C         1.566107        -1.192165        -1.566582
 C         2.586447        -0.165291        -1.209120
 O         3.884506        -0.699640        -0.844900
 C         4.150299        -0.341281         0.494796
 C         4.424627        -1.496701         1.407509
 C         3.131828        -0.793804         1.462494
 O         2.046647        -1.493185         0.714562
 H         0.643668         0.556373         1.342683
 H         0.523177         1.363350        -0.079461
 H        -0.653273        -0.157656         0.230241
 H         2.021021        -2.243547        -1.548169
 H         0.728611        -1.078550        -2.258996
 H         2.516405         0.856124        -1.631008
 H         4.469711         0.798803         0.476580
 H         4.596321        -2.579824         1.150224
 H         5.052846        -1.177756         2.287611
 H         2.864124        -0.180090         2.351140
