19
Iteration:   304charge 0 multiplicity 1
 C         0.380407         0.302565         0.337577
 C         1.447108        -0.621924        -0.152419
 C         1.571423        -1.153423        -1.597449
 C         2.613619        -0.213900        -1.214461
 O         3.917409        -0.716601        -0.876576
 C         4.101563        -0.264008         0.412428
 C         4.417551        -1.460305         1.439935
 C         3.134794        -0.794483         1.360559
 O         2.042975        -1.489298         0.791228
 H         0.611776         0.671457         1.279071
 H         0.184838         1.195892        -0.416204
 H        -0.552779        -0.174848         0.393784
 H         1.862853        -2.190326        -1.761371
 H         0.627970        -0.951872        -2.116521
 H         2.615293         0.826057        -1.550273
 H         4.586536         0.642879         0.538354
 H         4.435253        -2.484875         1.118442
 H         4.974663        -1.101952         2.283954
 H         2.734409        -0.112629         2.274523
