19
Iteration:  4343charge 0 multiplicity 1
 C         0.379953         0.360401         0.288482
 C         1.429605        -0.605697        -0.231680
 C         1.566774        -1.182351        -1.564118
 C         2.598633        -0.199879        -1.198101
 O         3.953894        -0.544028        -0.861695
 C         4.171548        -0.372075         0.527620
 C         4.468122        -1.574299         1.370513
 C         3.070722        -0.895422         1.376422
 O         1.974519        -1.451946         0.791027
 H         0.160373         1.045887        -0.497593
 H        -0.502824        -0.165626         0.580204
 H         0.698593         0.874653         1.258839
 H         1.685505        -2.290626        -1.548123
 H         0.787578        -0.923508        -2.286815
 H         2.532904         0.883329        -1.534405
 H         4.672697         0.696076         0.663143
 H         4.387223        -2.513841         0.857133
 H         5.108258        -1.374119         2.245679
 H         2.832888        -0.100677         2.275624
