19
Iteration:  1530
 C         0.329393         0.205677         0.079446
 C         1.512199        -0.569169        -0.179698
 C         1.718289        -1.305541        -1.488839
 C         2.490709        -0.079414        -1.153391
 O         3.910306        -0.416917        -0.875877
 C         4.187010        -0.401850         0.468148
 C         4.342072        -1.756125         1.191327
 C         3.172049        -0.829680         1.563379
 O         1.957963        -1.233991         0.956832
 H         0.536660         0.818159         0.891197
 H        -0.061598         0.805792        -0.844695
 H        -0.519285        -0.472196         0.316746
 H         2.229035        -2.255920        -1.581073
 H         0.996964        -1.283200        -2.286264
 H         2.279771         0.853529        -1.722526
 H         4.811569         0.446615         0.864434
 H         4.003436        -2.603468         0.641065
 H         5.096538        -2.198750         1.835544
 H         3.154001        -0.277399         2.550246
