19
Iteration:  1827
 C         0.251653         0.302271        -0.061746
 C         1.451964        -0.559235        -0.135178
 C         1.655349        -1.387686        -1.512413
 C         2.543835        -0.177560        -1.071522
 O         3.856826        -0.268157        -0.865343
 C         4.243403        -0.374576         0.551752
 C         4.439408        -1.819116         1.201619
 C         3.268029        -0.914939         1.491085
 O         1.926564        -1.223279         0.981026
 H         0.428286         1.092496         0.577603
 H         0.107049         0.671439        -1.015481
 H        -0.597010        -0.144698         0.545211
 H         2.106036        -2.344404        -1.265305
 H         0.950482        -1.446898        -2.393791
 H         2.142461         0.736336        -1.610766
 H         4.985559         0.359026         0.704353
 H         4.241748        -2.397103         0.236961
 H         5.136755        -2.338967         1.909453
 H         3.158550        -0.564888         2.625104
