19
Iteration:  2916charge 0 multiplicity 1
 C         0.254765         0.317930         0.125757
 C         1.443621        -0.661331        -0.157259
 C         1.648406        -1.275884        -1.455236
 C         2.563692        -0.096925        -1.162099
 O         3.865771        -0.436615        -0.950128
 C         4.356142        -0.445110         0.472776
 C         4.286560        -1.674497         1.329077
 C         3.156556        -0.788519         1.423734
 O         2.037808        -1.350088         0.920034
 H         0.410754         0.759066         1.160633
 H         0.138783         0.882253        -0.761316
 H        -0.610685        -0.372154         0.247527
 H         2.125403        -2.306790        -1.270147
 H         0.932090        -1.163258        -2.290175
 H         2.363991         0.829951        -1.677169
 H         4.907015         0.495043         0.634892
 H         4.179615        -2.556383         0.753414
 H         4.912082        -1.804700         2.171254
 H         3.107776        -0.106151         2.310022
