19
Iteration:  3153charge 0 multiplicity 1
 C         0.304800         0.199891         0.249613
 C         1.525856        -0.485916        -0.172899
 C         1.635841        -1.289172        -1.529300
 C         2.578409        -0.131367        -1.222899
 O         3.880364        -0.504706        -0.973188
 C         4.201047        -0.399870         0.483757
 C         4.387608        -1.698506         1.390076
 C         3.176823        -0.765921         1.440289
 O         1.967602        -1.286739         0.888129
 H         0.193965         0.304635         1.320062
 H         0.046670         1.132271        -0.395706
 H        -0.622573        -0.375642         0.159940
 H         2.020887        -2.321847        -1.338446
 H         0.889343        -1.180758        -2.462834
 H         2.260414         0.810720        -1.803378
 H         4.783991         0.432376         0.587389
 H         4.366157        -2.673141         0.961382
 H         5.250190        -1.879151         2.016746
 H         2.961295        -0.154531         2.368831
