19
Iteration:   874charge 0 multiplicity 1
 C         0.303897         0.228625         0.260606
 C         1.552668        -0.508840        -0.136722
 C         1.488634        -1.133722        -1.593558
 C         2.621796        -0.188131        -1.199284
 O         3.900052        -0.663208        -0.848637
 C         4.232478        -0.316344         0.487608
 C         4.392612        -1.479965         1.408665
 C         3.079722        -0.766608         1.360667
 O         2.060707        -1.528478         0.814865
 H         0.322034         0.639798         1.191453
 H         0.059879         1.032359        -0.480965
 H        -0.574410        -0.488791         0.306712
 H         1.909633        -2.170938        -1.701556
 H         0.703634        -0.830181        -2.362569
 H         2.653135         0.836974        -1.696276
 H         4.676847         0.612635         0.623345
 H         4.444358        -2.477132         0.874516
 H         5.153377        -1.393949         2.262991
 H         2.662738        -0.149090         2.185827
