19
Iteration:  3058charge 0 multiplicity 1
 C         0.394145         0.381877         0.306238
 C         1.479640        -0.604850        -0.267573
 C         1.563974        -1.326720        -1.616435
 C         2.556019        -0.163234        -1.145361
 O         3.880398        -0.633072        -0.836204
 C         4.134774        -0.273093         0.502756
 C         4.415068        -1.526292         1.349257
 C         3.136446        -0.841933         1.386637
 O         1.990281        -1.447102         0.824118
 H         0.926837         0.941829         1.133533
 H         0.071105         1.013963        -0.452655
 H        -0.485184        -0.043315         0.816494
 H         2.077995        -2.297332        -1.627631
 H         0.883151        -0.941577        -2.437772
 H         2.619296         0.729608        -1.800187
 H         4.561520         0.750875         0.824433
 H         4.712502        -2.405997         0.784465
 H         5.162821        -1.378034         2.156834
 H         2.812630        -0.273181         2.325195
