19
Iteration:  4329charge 0 multiplicity 1
 C         0.504703         0.395183         0.290833
 C         1.537786        -0.585517        -0.194229
 C         1.567299        -1.276179        -1.561753
 C         2.557229        -0.135417        -1.210428
 O         3.874402        -0.469971        -0.896302
 C         4.134644        -0.380059         0.469444
 C         4.343283        -1.578864         1.370859
 C         3.070268        -0.858142         1.445480
 O         1.981826        -1.537161         0.771880
 H         0.147562         1.216594        -0.432588
 H        -0.387755        -0.132334         0.635526
 H         0.952563         1.034361         1.183411
 H         2.228560        -2.188654        -1.539578
 H         0.855546        -1.201534        -2.371467
 H         2.394567         0.823910        -1.764539
 H         4.645748         0.483291         0.916315
 H         4.605529        -2.618612         1.163428
 H         4.965846        -1.384902         2.245876
 H         2.745092        -0.323165         2.341223
