19
Iteration:  2425
 C         0.298560         0.251872         0.100792
 C         1.540358        -0.564294        -0.173524
 C         1.662356        -1.184665        -1.554527
 C         2.579564        -0.112105        -1.229497
 O         3.835950        -0.580622        -0.903147
 C         4.219061        -0.354831         0.570483
 C         4.427908        -1.637778         1.291705
 C         3.120208        -0.851625         1.524573
 O         1.970579        -1.380733         0.925775
 H         0.619222         1.247640         0.582302
 H        -0.333004         0.294772        -0.759606
 H        -0.253167        -0.180491         0.916805
 H         2.070299        -2.184611        -1.790223
 H         0.802092        -0.996140        -2.274597
 H         2.332951         0.890530        -1.529800
 H         4.744298         0.608034         0.799463
 H         4.237409        -2.480936         0.629651
 H         5.090124        -1.703052         2.124321
 H         3.049421        -0.103132         2.300766
