19
Iteration:  4104charge 0 multiplicity 1
 C         0.416345         0.466074         0.203157
 C         1.437713        -0.604969        -0.208711
 C         1.641909        -1.218480        -1.661591
 C         2.534416        -0.178600        -1.127383
 O         3.875237        -0.516027        -0.840463
 C         4.126841        -0.419999         0.493624
 C         4.483549        -1.565490         1.346829
 C         3.073766        -0.938813         1.422012
 O         1.985080        -1.473418         0.853977
 H        -0.147202         0.984312        -0.588569
 H        -0.396433         0.120710         1.049873
 H         1.005109         1.213832         0.814092
 H         2.082189        -2.153047        -1.701114
 H         0.883040        -1.327607        -2.413289
 H         2.319040         0.867840        -1.530760
 H         4.674254         0.553164         0.830755
 H         4.498025        -2.540761         0.906587
 H         5.176451        -1.303790         2.069783
 H         3.001919        -0.494507         2.445996
