19
Iteration:  1956
 C         0.369205         0.291885         0.319364
 C         1.496894        -0.545446        -0.230569
 C         1.543414        -1.096994        -1.725738
 C         2.559113        -0.137722        -1.084457
 O         3.866502        -0.730500        -0.829423
 C         4.142039        -0.436628         0.423526
 C         4.510677        -1.409711         1.493878
 C         3.080916        -0.789864         1.444390
 O         2.011092        -1.568400         0.751583
 H         0.738977         0.791785         1.305200
 H         0.257097         1.115463        -0.450285
 H        -0.576403        -0.232996         0.225516
 H         1.852025        -2.139511        -1.837300
 H         0.935060        -0.834806        -2.578459
 H         2.418335         0.900473        -1.497686
 H         4.649864         0.598791         0.496214
 H         4.711708        -2.460207         1.158331
 H         5.163627        -0.891733         2.268930
 H         2.818191        -0.016413         2.187995
