19
Iteration:  3772
 C         0.458644         0.412352         0.306273
 C         1.532539        -0.572005        -0.278361
 C         1.517515        -1.267623        -1.705671
 C         2.578249        -0.237872        -1.202474
 O         3.898056        -0.550710        -0.743341
 C         4.105851        -0.287577         0.593268
 C         4.489235        -1.573892         1.305411
 C         3.099600        -0.895472         1.448069
 O         1.964652        -1.428393         0.774830
 H        -0.298538         0.781701        -0.500327
 H        -0.238759        -0.217065         0.934927
 H         1.013496         1.125611         1.015928
 H         1.425974        -2.333229        -1.849115
 H         0.810597        -0.959589        -2.459183
 H         2.487445         0.746010        -1.658694
 H         4.613439         0.590094         0.785632
 H         4.372335        -2.517735         0.753565
 H         5.191450        -1.488360         2.189053
 H         2.881490        -0.426502         2.403212
