19
Iteration:  4424charge 0 multiplicity 1
 C         0.274232         0.218666         0.183628
 C         1.409420        -0.626033        -0.175801
 C         1.559884        -1.175475        -1.558540
 C         2.610234        -0.129975        -1.109546
 O         3.941205        -0.476499        -0.926735
 C         4.286448        -0.445441         0.471163
 C         4.357453        -1.715345         1.345702
 C         3.198618        -0.716265         1.459079
 O         1.989426        -1.347277         0.893921
 H        -0.103838         0.747417        -0.723607
 H        -0.606197        -0.346407         0.573146
 H         0.616510         0.886644         0.857232
 H         1.913474        -2.214058        -1.880931
 H         0.819420        -0.796549        -2.279107
 H         2.363392         0.699846        -1.734213
 H         4.854900         0.373832         0.768061
 H         4.176792        -2.716202         0.930415
 H         5.181922        -1.779375         2.099819
 H         2.981342        -0.020524         2.247341
