19
Iteration:   365
 C         0.394337         0.334810         0.159845
 C         1.504144        -0.600742        -0.189054
 C         1.566118        -1.224678        -1.487631
 C         2.552581        -0.216777        -1.115328
 O         3.869629        -0.595355        -0.860670
 C         4.208201        -0.265837         0.502977
 C         4.429342        -1.506007         1.343290
 C         3.106024        -0.816429         1.450047
 O         1.991669        -1.487983         0.748212
 H         0.683912         1.395118         0.509537
 H        -0.300549         0.497317        -0.622216
 H        -0.102867        -0.257163         0.971639
 H         1.911182        -2.257224        -1.440020
 H         0.746740        -0.939216        -2.112657
 H         2.367004         0.795580        -1.471210
 H         4.903853         0.624523         0.565011
 H         4.323581        -2.429420         0.753171
 H         5.178880        -1.668797         2.107252
 H         2.818451        -0.311759         2.284414
