19
Iteration:  2300charge 0 multiplicity 1
 C         0.271269         0.245304         0.046413
 C         1.513200        -0.530843        -0.167709
 C         1.482945        -1.240510        -1.535556
 C         2.596923        -0.085813        -1.221758
 O         3.888034        -0.600826        -0.815613
 C         4.235894        -0.359742         0.531045
 C         4.507228        -1.612192         1.279368
 C         3.189610        -0.876513         1.530237
 O         1.955383        -1.352218         0.907122
 H         0.251460         0.654522         1.013676
 H         0.077346         1.137083        -0.662901
 H        -0.622232        -0.483525        -0.077214
 H         1.843361        -2.262200        -1.661340
 H         0.758366        -0.891294        -2.266266
 H         2.564481         0.982061        -1.654791
 H         4.629538         0.568104         0.795989
 H         4.568514        -2.622867         0.698508
 H         5.218322        -1.713160         2.187527
 H         3.092043        -0.026009         2.342412
