19
Iteration:  4081
 C         0.397991         0.291400         0.261483
 C         1.518654        -0.523932        -0.206461
 C         1.527980        -1.193449        -1.568465
 C         2.563937        -0.155360        -1.224939
 O         3.883402        -0.624795        -0.809936
 C         4.240850        -0.352111         0.530057
 C         4.352243        -1.570191         1.382373
 C         3.120828        -0.814607         1.450082
 O         2.034777        -1.459882         0.696328
 H        -0.108918         0.870414        -0.533208
 H        -0.462336        -0.162598         0.930662
 H         0.722009         1.039979         1.043216
 H         1.692199        -2.241149        -1.713608
 H         0.763901        -1.011664        -2.265695
 H         2.472902         0.886517        -1.616077
 H         4.815298         0.646602         0.771260
 H         4.243171        -2.459198         0.830617
 H         4.990922        -1.678117         2.223618
 H         2.954083        -0.151412         2.369235
