19
Iteration:  4258
 C         0.269428         0.354689         0.200403
 C         1.494196        -0.456678        -0.177325
 C         1.548245        -1.181602        -1.570254
 C         2.614154        -0.107702        -1.209122
 O         3.938291        -0.627813        -0.830722
 C         4.081716        -0.400800         0.509160
 C         4.524484        -1.573367         1.345639
 C         3.124066        -0.950972         1.423819
 O         1.975072        -1.447811         0.835312
 H        -0.219072         0.788958        -0.656444
 H        -0.514499        -0.328276         0.677579
 H         0.486749         1.194281         0.831367
 H         2.113107        -2.154176        -1.598444
 H         0.867262        -0.905380        -2.342559
 H         2.673668         0.866437        -1.743469
 H         4.548334         0.615689         0.688856
 H         4.785364        -2.538695         0.971290
 H         5.303597        -1.499798         2.134894
 H         2.903952        -0.465019         2.413910
