19
Iteration:  3997
 C         0.297745         0.377985         0.126624
 C         1.539220        -0.600867        -0.189401
 C         1.500380        -1.187775        -1.612967
 C         2.564430        -0.093534        -1.199386
 O         3.879116        -0.618949        -0.850868
 C         4.167483        -0.339521         0.550752
 C         4.426886        -1.611295         1.299151
 C         3.180152        -0.819804         1.509846
 O         2.033953        -1.500989         0.929179
 H         0.352068         0.997794        -0.733053
 H        -0.477468        -0.411537         0.152348
 H         0.419649         0.913746         1.056221
 H         1.942672        -2.159533        -1.784418
 H         0.609455        -0.733849        -2.163033
 H         2.524851         0.888630        -1.782244
 H         4.721291         0.609817         0.684959
 H         4.368456        -2.533984         0.766318
 H         5.156405        -1.586271         2.090365
 H         3.097360        -0.203355         2.368586
