19
Iteration:  2023
 C         0.353050         0.396980         0.195214
 C         1.421246        -0.584551        -0.171471
 C         1.610343        -1.328724        -1.537260
 C         2.501630        -0.156650        -1.210299
 O         3.964836        -0.407019        -0.871688
 C         4.194053        -0.367090         0.528029
 C         4.448080        -1.671611         1.376194
 C         3.127916        -0.918018         1.459576
 O         1.977323        -1.435055         0.802122
 H         0.817727         1.285947         0.658533
 H        -0.122573         0.777384        -0.673602
 H        -0.538950        -0.037371         0.671988
 H         1.901744        -2.393942        -1.616569
 H         0.916223        -1.070617        -2.348706
 H         2.430751         0.759351        -1.810131
 H         4.658267         0.480845         0.969008
 H         4.501358        -2.551058         0.778688
 H         5.077304        -1.357189         2.169324
 H         2.849171        -0.294058         2.353483
