19
Iteration:  3929charge 0 multiplicity 1
 C         0.438518         0.366460         0.159613
 C         1.539333        -0.563328        -0.170740
 C         1.618869        -1.395992        -1.549982
 C         2.543511        -0.126755        -1.187442
 O         3.916987        -0.384485        -0.866986
 C         4.136985        -0.364188         0.534178
 C         4.319871        -1.703749         1.202618
 C         3.084216        -0.836533         1.538816
 O         1.993080        -1.411321         0.880937
 H        -0.115165         0.734352        -0.706718
 H        -0.230002        -0.218482         1.009044
 H         0.888402         1.328667         0.523354
 H         2.001442        -2.443324        -1.612854
 H         0.858464        -1.121918        -2.223651
 H         2.326455         0.803858        -1.737454
 H         4.863370         0.459632         0.923682
 H         4.066316        -2.543524         0.626985
 H         5.098868        -1.864252         1.866134
 H         2.944563        -0.336612         2.503377
