19
Iteration:   758charge 0 multiplicity 1
 C         0.305842         0.338397         0.166633
 C         1.484121        -0.653498        -0.282559
 C         1.648199        -1.336175        -1.576072
 C         2.493360        -0.118618        -1.235914
 O         3.898885        -0.391591        -0.797833
 C         4.229770        -0.419185         0.507312
 C         4.468978        -1.655719         1.272457
 C         3.140530        -0.861032         1.475605
 O         1.956138        -1.349562         0.919567
 H         0.787410         1.281423         0.714169
 H        -0.344399         0.475321        -0.656948
 H        -0.363517        -0.154754         0.976961
 H         2.169365        -2.313202        -1.473395
 H         0.760080        -1.226029        -2.274131
 H         2.329047         0.891514        -1.643612
 H         4.689528         0.548266         0.913051
 H         4.171875        -2.627506         0.840014
 H         5.266114        -1.651270         2.077017
 H         3.044486        -0.318819         2.366331
