19
Iteration:   231charge 0 multiplicity 1
 C         0.290858         0.333352         0.068744
 C         1.517538        -0.620073        -0.136223
 C         1.615583        -1.254786        -1.492236
 C         2.602970        -0.198273        -1.126513
 O         3.890058        -0.549457        -0.866824
 C         4.183857        -0.357973         0.443874
 C         4.441785        -1.592142         1.148504
 C         3.184780        -0.783717         1.500790
 O         1.922347        -1.369959         0.982192
 H         0.369646         0.943598         1.003354
 H        -0.016251         0.950787        -0.788518
 H        -0.605172        -0.374374         0.139980
 H         2.017566        -2.261254        -1.224344
 H         1.035901        -1.278045        -2.446017
 H         2.269813         0.824565        -1.387946
 H         4.831733         0.552232         0.697338
 H         4.229194        -2.533381         0.664941
 H         5.196048        -1.510718         1.915753
 H         3.064733        -0.345965         2.418905
