19
Iteration:  3681
 C         0.252847         0.217233         0.227777
 C         1.490738        -0.525308        -0.236637
 C         1.648214        -1.173578        -1.598570
 C         2.581386        -0.109519        -1.182031
 O         3.957654        -0.511428        -0.908936
 C         4.216351        -0.501495         0.464094
 C         4.383820        -1.688134         1.312464
 C         3.168106        -0.793540         1.487539
 O         1.904794        -1.292091         0.935099
 H        -0.035921         0.950516        -0.517177
 H        -0.566549        -0.520574         0.138778
 H         0.380185         0.426563         1.306215
 H         1.936762        -2.262209        -1.545641
 H         0.876127        -0.736063        -2.353781
 H         2.645697         0.884714        -1.732550
 H         5.056927         0.137178         0.781954
 H         4.290984        -2.689267         1.019573
 H         5.134300        -1.633244         2.081841
 H         3.023219        -0.229539         2.423536
