19
Iteration:  4799
 C         0.441438         0.386562         0.225800
 C         1.502928        -0.627795        -0.220643
 C         1.535212        -1.180575        -1.566865
 C         2.597821        -0.188616        -1.239962
 O         3.832836        -0.591442        -0.859229
 C         4.167974        -0.374687         0.507774
 C         4.412978        -1.588195         1.412242
 C         3.107234        -0.796778         1.454542
 O         2.018160        -1.454711         0.820407
 H         0.156759         0.937134        -0.674470
 H        -0.404801        -0.282482         0.459680
 H         0.862246         0.807404         1.157115
 H         1.823614        -2.167497        -1.807986
 H         0.788717        -0.725687        -2.312979
 H         2.468665         0.873303        -1.669274
 H         4.784607         0.606403         0.630676
 H         4.333070        -2.608572         0.948193
 H         5.044107        -1.391706         2.327832
 H         2.779069        -0.302782         2.404709
