19
Iteration:  4720charge 0 multiplicity 1
 C         0.322676         0.182042         0.135274
 C         1.532385        -0.535473        -0.204130
 C         1.625264        -1.209799        -1.571568
 C         2.573903        -0.067105        -1.210555
 O         3.879785        -0.503212        -0.890575
 C         4.180820        -0.481664         0.445271
 C         4.360882        -1.735228         1.359756
 C         3.188155        -0.768549         1.518247
 O         1.987218        -1.304826         0.947141
 H        -0.042464         0.846993        -0.726866
 H        -0.554570        -0.340066         0.576972
 H         0.532266         0.900730         0.946296
 H         1.913691        -2.320498        -1.689322
 H         0.756518        -0.913060        -2.118530
 H         2.482843         0.871900        -1.779560
 H         4.833232         0.296896         0.693468
 H         4.054867        -2.661189         0.917731
 H         5.196569        -1.705277         2.043898
 H         2.988573        -0.082888         2.283982
