19
Iteration:  2192charge 0 multiplicity 1
 C         0.417371         0.442770         0.171650
 C         1.486394        -0.615160        -0.203574
 C         1.557597        -1.185231        -1.578740
 C         2.539632        -0.217842        -1.137779
 O         3.865995        -0.601686        -0.766392
 C         4.155102        -0.251427         0.543127
 C         4.496849        -1.469892         1.355529
 C         3.050539        -1.019322         1.389674
 O         2.011920        -1.493046         0.751341
 H         0.820733         1.166564         0.840079
 H        -0.104385         0.879506        -0.729487
 H        -0.376323         0.038040         0.806622
 H         1.915008        -2.195895        -1.652367
 H         0.770761        -0.965599        -2.311214
 H         2.823523         0.701882        -1.689685
 H         4.488849         0.673175         0.691946
 H         4.792926        -2.381054         0.705502
 H         5.087168        -1.294913         2.357997
 H         2.730494        -0.748269         2.460055
