19
Iteration:  4551charge 0 multiplicity 1
 C         0.253615         0.265806         0.386906
 C         1.395350        -0.539569        -0.174560
 C         1.580258        -1.158641        -1.675099
 C         2.689990        -0.130434        -1.198541
 O         3.945885        -0.701050        -0.883112
 C         4.260427        -0.410038         0.442013
 C         4.410356        -1.612161         1.459789
 C         3.116454        -0.751409         1.328357
 O         1.978043        -1.362550         0.788444
 H        -0.076900         1.008830        -0.321727
 H        -0.492611        -0.538194         0.596953
 H         0.472064         0.769395         1.443119
 H         1.855400        -2.185150        -1.777985
 H         0.743657        -0.846995        -2.129308
 H         2.600165         0.842996        -1.580946
 H         4.827091         0.565019         0.606932
 H         4.364654        -2.654625         1.155947
 H         5.109365        -1.326362         2.273549
 H         2.780163        -0.013259         2.131385
