19
Iteration:  4327charge 0 multiplicity 1
 C         0.520873         0.396155         0.294718
 C         1.549725        -0.574260        -0.206137
 C         1.576799        -1.289153        -1.559165
 C         2.542338        -0.119234        -1.204207
 O         3.869944        -0.464991        -0.900823
 C         4.128097        -0.373950         0.459212
 C         4.335085        -1.575504         1.389031
 C         3.066987        -0.854743         1.463810
 O         1.984476        -1.542087         0.771229
 H         0.198832         1.211691        -0.454322
 H        -0.415176        -0.116992         0.701938
 H         0.946403         1.003999         1.122929
 H         2.184988        -2.180707        -1.593094
 H         0.871069        -1.253332        -2.401360
 H         2.367108         0.771193        -1.757759
 H         4.645360         0.403383         0.854466
 H         4.577161        -2.624111         1.116954
 H         4.997745        -1.409733         2.244432
 H         2.752544        -0.434570         2.303084
