19
Iteration:  3173
 C         0.221740         0.276342         0.193391
 C         1.453015        -0.551424        -0.149397
 C         1.513940        -1.307339        -1.484130
 C         2.626483        -0.188691        -1.231335
 O         3.965769        -0.482336        -0.860260
 C         4.314569        -0.388695         0.525538
 C         4.372690        -1.612053         1.240323
 C         3.170577        -0.798430         1.444224
 O         2.015739        -1.356794         0.846434
 H         0.466806         0.752303         1.118434
 H        -0.231007         0.967658        -0.648619
 H        -0.661463        -0.304638         0.537068
 H         1.681080        -2.390866        -1.602520
 H         0.808464        -1.014666        -2.296025
 H         2.491998         0.816982        -1.725407
 H         4.834190         0.509277         0.782027
 H         4.163537        -2.612004         0.862714
 H         5.044366        -1.614411         2.090466
 H         3.069524        -0.264585         2.357030
