19
Iteration:  1203charge 0 multiplicity 1
 C         0.224534         0.269722         0.124000
 C         1.467583        -0.610106        -0.167727
 C         1.593729        -1.187312        -1.593670
 C         2.520232        -0.121671        -1.225899
 O         3.859565        -0.548099        -0.890260
 C         4.264965        -0.357335         0.537401
 C         4.487046        -1.642095         1.323572
 C         3.235353        -0.892596         1.491786
 O         1.975635        -1.287096         0.907923
 H         0.350446         0.748546         1.036500
 H        -0.040503         0.762692        -0.799546
 H        -0.674421        -0.530962         0.031856
 H         2.150420        -2.103475        -1.567563
 H         0.667787        -1.180241        -2.132343
 H         2.482208         0.933897        -1.490338
 H         4.801202         0.472715         0.683574
 H         4.661330        -2.665267         1.001878
 H         5.067634        -1.419602         2.215831
 H         3.088753        -0.580027         2.581133
