19
Iteration:  2858charge 0 multiplicity 1
 C         0.319198         0.371032         0.124715
 C         1.430379        -0.633672        -0.219938
 C         1.542911        -1.379667        -1.522338
 C         2.511867        -0.154622        -1.126077
 O         3.918622        -0.536240        -0.836382
 C         4.257776        -0.329140         0.540816
 C         4.512673        -1.629261         1.249816
 C         3.194992        -0.856236         1.406840
 O         1.935812        -1.287323         0.922507
 H        -0.020382         0.474789         1.124313
 H         0.398140         1.433893        -0.098683
 H        -0.520143        -0.009964        -0.399815
 H         2.129433        -2.341216        -1.490328
 H         0.824126        -1.366630        -2.456722
 H         2.411501         0.837721        -1.661929
 H         4.693834         0.615084         0.768210
 H         4.401528        -2.548883         0.609917
 H         5.221730        -1.539574         2.103123
 H         2.991536        -0.465417         2.400748
