19
Iteration:  3485
 C         0.303630         0.216228         0.118260
 C         1.560669        -0.545765        -0.209333
 C         1.538783        -1.123098        -1.624918
 C         2.562289        -0.110100        -1.169025
 O         3.808400        -0.699886        -0.827293
 C         4.172947        -0.345766         0.594282
 C         4.530580        -1.575754         1.277773
 C         3.174767        -0.878854         1.517134
 O         1.958530        -1.319317         0.885294
 H         0.260468         1.271507        -0.363446
 H        -0.564507        -0.471151        -0.165392
 H         0.462092         0.555914         1.200340
 H         1.954263        -2.150651        -1.816981
 H         0.766502        -0.854550        -2.275388
 H         2.565593         0.839242        -1.749275
 H         4.793572         0.478775         0.671150
 H         4.427938        -2.583605         0.761792
 H         5.319052        -1.519028         2.029950
 H         3.055071        -0.331832         2.452672
