19
Iteration:  3646
 C         0.252485         0.235389         0.175411
 C         1.451717        -0.516856        -0.207605
 C         1.633174        -1.171585        -1.532939
 C         2.563913        -0.086672        -1.101025
 O         3.903403        -0.618220        -0.825254
 C         4.259456        -0.390291         0.505586
 C         4.389427        -1.697764         1.281528
 C         3.156304        -0.782183         1.413603
 O         2.007037        -1.331991         0.835874
 H         0.201636         1.095219        -0.401504
 H        -0.621242        -0.465130        -0.023017
 H         0.222404         0.676186         1.147531
 H         1.884163        -2.209719        -1.523252
 H         0.795861        -1.069653        -2.328751
 H         2.488806         0.851214        -1.694637
 H         5.129091         0.405213         0.731902
 H         4.157719        -2.526036         0.556194
 H         5.022695        -1.799733         2.223229
 H         3.115696        -0.259757         2.447719
