19
Iteration:  1580
 C         0.174387         0.165016         0.061335
 C         1.515573        -0.465284        -0.151046
 C         1.595511        -1.160778        -1.513771
 C         2.645128        -0.049591        -1.110879
 O         3.924733        -0.549145        -0.898145
 C         4.276329        -0.437001         0.466282
 C         4.436424        -1.689330         1.290642
 C         3.130158        -0.849042         1.441512
 O         1.924155        -1.328905         0.953540
 H         0.193197         1.140866         0.722258
 H        -0.285929         0.456711        -0.873946
 H        -0.495171        -0.612516         0.435215
 H         2.139160        -2.160401        -1.466241
 H         0.750223        -1.122356        -2.278420
 H         2.577844         0.966781        -1.455513
 H         4.950658         0.430639         0.790130
 H         4.458406        -2.663847         0.745917
 H         5.271439        -1.718603         2.058557
 H         3.015255        -0.258702         2.348299
