19
Iteration:  3559charge 0 multiplicity 1
 C         0.479682         0.368934         0.350619
 C         1.478500        -0.570001        -0.287129
 C         1.496750        -1.222576        -1.649433
 C         2.553777        -0.226264        -1.337100
 O         3.866832        -0.561243        -0.785013
 C         4.176353        -0.322050         0.588859
 C         4.377867        -1.561071         1.431690
 C         3.129203        -0.884181         1.498553
 O         2.028819        -1.422196         0.709418
 H        -0.264247         0.646526        -0.289763
 H        -0.154632        -0.339929         0.996780
 H         0.997367         1.145534         0.859036
 H         1.795298        -2.296605        -1.738145
 H         0.895652        -0.874366        -2.434294
 H         2.525710         0.776792        -1.758303
 H         4.666651         0.662741         0.593923
 H         4.388733        -2.546856         0.801104
 H         5.086528        -1.598956         2.294064
 H         2.865454        -0.263284         2.446713
