19
Iteration:  3033
 C         0.534104         0.332422         0.293690
 C         1.528304        -0.689438        -0.223616
 C         1.480599        -1.228141        -1.613363
 C         2.583378        -0.221524        -1.205995
 O         3.918562        -0.513418        -0.918809
 C         4.131901        -0.305271         0.508189
 C         4.332063        -1.505229         1.391761
 C         3.066921        -0.755833         1.509176
 O         2.020965        -1.529174         0.792675
 H         1.084159         1.162778         0.688690
 H        -0.245416         0.620513        -0.465687
 H         0.029475        -0.033732         1.162823
 H         1.934529        -2.335001        -1.552998
 H         0.708074        -0.806070        -2.350810
 H         2.573094         0.784549        -1.774219
 H         4.744809         0.510079         0.731886
 H         4.096029        -2.507792         1.021221
 H         5.086664        -1.554372         2.138486
 H         2.510068        -0.117014         2.213889
