19
Iteration:  1712
 C         0.366999         0.239541         0.217594
 C         1.541966        -0.587366        -0.253496
 C         1.557675        -1.131355        -1.581490
 C         2.571526        -0.091357        -1.174973
 O         3.924971        -0.636732        -0.858482
 C         4.192853        -0.364118         0.492571
 C         4.442086        -1.474616         1.374085
 C         3.058051        -0.859922         1.481626
 O         1.928408        -1.507036         0.822894
 H         0.850905         0.917160         1.047632
 H        -0.000821         0.897847        -0.642256
 H        -0.348637        -0.224481         0.794101
 H         1.916701        -2.167819        -1.641330
 H         0.871924        -0.751947        -2.413807
 H         2.668879         0.888590        -1.602242
 H         4.631700         0.666115         0.737907
 H         4.394924        -2.423843         0.784514
 H         5.155530        -1.389949         2.197752
 H         2.867403        -0.318863         2.352135
