19
Iteration:  2219
 C         0.493335         0.360126         0.269274
 C         1.503162        -0.644713        -0.281817
 C         1.473077        -1.119266        -1.684865
 C         2.596612        -0.183595        -1.214887
 O         3.890900        -0.627004        -0.824049
 C         4.070226        -0.300640         0.567196
 C         4.476107        -1.477799         1.469494
 C         3.017754        -0.854913         1.450548
 O         2.069610        -1.566935         0.749545
 H         0.940060         1.206666         0.902420
 H        -0.210384         0.728077        -0.443648
 H        -0.066774        -0.066075         1.145643
 H         1.546472        -2.234466        -1.795210
 H         0.711989        -0.791305        -2.378820
 H         2.775964         0.749763        -1.693683
 H         4.600741         0.779067         0.831414
 H         4.376198        -2.422877         1.066451
 H         5.263073        -1.308152         2.123463
 H         2.572744        -0.328196         2.247367
