19
Iteration:  1433
 C         0.365956         0.304671         0.260059
 C         1.482897        -0.613604        -0.161706
 C         1.610914        -1.126674        -1.674147
 C         2.557678        -0.177273        -1.113590
 O         3.910340        -0.631663        -0.869986
 C         4.130861        -0.385216         0.448392
 C         4.432641        -1.494308         1.390423
 C         3.063332        -0.811568         1.353301
 O         2.019966        -1.500411         0.878433
 H         0.817573         0.931716         0.974916
 H        -0.077039         0.951591        -0.562027
 H        -0.522225        -0.189847         0.822727
 H         1.967820        -2.128958        -1.929039
 H         0.910534        -0.878794        -2.466080
 H         2.498542         0.885388        -1.520052
 H         4.515828         0.547822         0.735998
 H         4.589572        -2.510427         1.080229
 H         5.149155        -1.279329         2.170091
 H         2.972868        -0.007564         2.242410
