19
Iteration:  1045charge 0 multiplicity 1
 C         0.260478         0.196678         0.063191
 C         1.431340        -0.624733        -0.169218
 C         1.568465        -1.238888        -1.526509
 C         2.525486        -0.085497        -1.160770
 O         3.852695        -0.466974        -0.828886
 C         4.326139        -0.452084         0.446776
 C         4.422515        -1.704763         1.358497
 C         3.220728        -0.828258         1.475128
 O         2.012847        -1.284532         0.917909
 H         0.338953         0.869149         0.975590
 H         0.015730         0.954775        -0.768195
 H        -0.611293        -0.376176         0.057091
 H         2.179279        -2.145304        -1.593071
 H         0.953413        -1.004968        -2.414427
 H         2.251918         0.815608        -1.674142
 H         4.957951         0.538019         0.616874
 H         4.259638        -2.676610         0.880829
 H         5.118973        -1.488818         2.167127
 H         3.064935        -0.038461         2.208831
