19
Iteration:  4203
 C         0.298855         0.156465         0.134280
 C         1.535566        -0.563769        -0.156097
 C         1.639112        -1.079569        -1.607179
 C         2.563234        -0.102762        -1.169454
 O         3.917961        -0.560299        -0.949591
 C         4.261353        -0.486772         0.396438
 C         4.316344        -1.654391         1.371292
 C         3.154985        -0.721479         1.533582
 O         1.966808        -1.376443         0.960304
 H         0.111347         1.060940        -0.447677
 H        -0.658166        -0.489296         0.311747
 H         0.386373         0.459155         1.192805
 H         1.893289        -2.119616        -1.873208
 H         0.843331        -0.812914        -2.286768
 H         2.417866         0.962852        -1.530409
 H         4.956928         0.428969         0.655929
 H         4.053005        -2.625510         0.938225
 H         5.112084        -1.797547         2.097844
 H         2.937865        -0.078787         2.453167
