19
Iteration:  4426
 C         0.283677         0.223038         0.184187
 C         1.406414        -0.623476        -0.190288
 C         1.551876        -1.183538        -1.545744
 C         2.604946        -0.146961        -1.118801
 O         3.943020        -0.468944        -0.920524
 C         4.283661        -0.439695         0.472403
 C         4.361901        -1.718661         1.342056
 C         3.185875        -0.717639         1.470060
 O         1.998584        -1.341295         0.885944
 H        -0.155403         0.726944        -0.741418
 H        -0.566506        -0.388914         0.534660
 H         0.695063         0.944093         0.943918
 H         1.971328        -2.229183        -1.847283
 H         0.814868        -0.726355        -2.249843
 H         2.306554         0.692365        -1.782294
 H         4.873100         0.381842         0.826183
 H         4.141237        -2.690485         0.912528
 H         5.180400        -1.834172         2.093122
 H         2.976679        -0.053048         2.218233
