19
Iteration:  1649
 C         0.484954         0.381305         0.342154
 C         1.558802        -0.591036        -0.154175
 C         1.564269        -1.190347        -1.627678
 C         2.562986        -0.187363        -1.208940
 O         3.954273        -0.531520        -0.931010
 C         4.043576        -0.385544         0.489375
 C         4.374281        -1.449856         1.471673
 C         3.014844        -0.885695         1.437121
 O         2.023085        -1.626805         0.752825
 H         0.901345         1.016707         1.163720
 H         0.298632         1.176915        -0.519193
 H        -0.531512         0.025364         0.501741
 H         1.772764        -2.215501        -1.770095
 H         0.855386        -0.898747        -2.389513
 H         2.423624         0.845953        -1.575837
 H         4.427271         0.749954         0.741369
 H         4.709555        -2.342781         0.980956
 H         5.097353        -1.243333         2.212122
 H         2.604753        -0.321867         2.225527
