19
Iteration:  4101
 C         0.400193         0.466207         0.235893
 C         1.417374        -0.614330        -0.211342
 C         1.627611        -1.214812        -1.648321
 C         2.556186        -0.167357        -1.119681
 O         3.860875        -0.528592        -0.847114
 C         4.133746        -0.402172         0.494069
 C         4.493211        -1.596304         1.365110
 C         3.068109        -0.914510         1.418095
 O         2.003959        -1.467643         0.828650
 H        -0.138700         0.962164        -0.574313
 H        -0.325838         0.045800         0.888502
 H         1.017914         1.207007         0.755278
 H         2.136297        -2.233254        -1.655077
 H         0.928761        -1.216055        -2.471411
 H         2.352259         0.765527        -1.609511
 H         4.702965         0.545411         0.805418
 H         4.429672        -2.527511         0.843675
 H         5.221662        -1.282061         2.150207
 H         2.915474        -0.441669         2.473078
