19
Iteration:  3620charge 0 multiplicity 1
 C         0.354852         0.355351         0.091386
 C         1.443623        -0.620318        -0.216818
 C         1.518395        -1.180615        -1.657376
 C         2.515764        -0.116752        -1.192301
 O         3.887512        -0.509747        -0.851610
 C         4.170648        -0.421315         0.516080
 C         4.497502        -1.646386         1.362706
 C         3.190216        -0.909559         1.570470
 O         2.017825        -1.420424         0.923311
 H         0.257728         1.104172        -0.766055
 H        -0.559934        -0.168400         0.353716
 H         0.468497         1.051178         0.963657
 H         1.925092        -2.183819        -1.966455
 H         0.720297        -0.796338        -2.220370
 H         2.340542         0.845474        -1.646784
 H         4.752585         0.484685         0.844186
 H         4.378945        -2.569067         0.788655
 H         5.248102        -1.548405         2.110181
 H         3.130393        -0.295059         2.425017
