19
Iteration:  2015
 C         0.346331         0.392831         0.249725
 C         1.459045        -0.570269        -0.224993
 C         1.573240        -1.312410        -1.572852
 C         2.557617        -0.229696        -1.200519
 O         3.950474        -0.404102        -0.858555
 C         4.202433        -0.355077         0.508190
 C         4.427920        -1.590231         1.375613
 C         3.089947        -0.869516         1.481155
 O         1.968439        -1.494340         0.772949
 H         0.730119         1.172539         0.833732
 H         0.039434         0.885802        -0.653252
 H        -0.545118        -0.041759         0.849479
 H         1.892834        -2.344343        -1.522772
 H         0.884639        -0.916393        -2.359239
 H         2.584467         0.670610        -1.803634
 H         4.818631         0.455309         0.660634
 H         4.433568        -2.552931         0.881875
 H         5.024082        -1.589176         2.266867
 H         2.994809        -0.381188         2.534890
