19
Iteration:  3383
 C         0.296564         0.316191         0.178698
 C         1.443151        -0.580405        -0.193978
 C         1.628533        -1.277724        -1.526726
 C         2.560227        -0.154677        -1.108923
 O         3.990743        -0.421005        -0.828060
 C         4.226394        -0.326851         0.519468
 C         4.406321        -1.734980         1.220030
 C         3.112088        -0.849895         1.378813
 O         1.915159        -1.373134         0.882559
 H        -0.273686         0.351626        -0.716995
 H        -0.203394        -0.084674         1.172791
 H         0.742993         1.289615         0.410783
 H         1.931544        -2.330076        -1.375882
 H         1.046755        -1.141674        -2.445044
 H         2.479956         0.734087        -1.717592
 H         4.843016         0.553489         0.698771
 H         4.285633        -2.656146         0.665306
 H         4.963472        -1.723895         2.134110
 H         3.048160        -0.408028         2.413142
