19
Iteration:  2839charge 0 multiplicity 1
 C         0.272038         0.376419         0.013859
 C         1.491215        -0.578133        -0.090263
 C         1.654732        -1.248600        -1.473737
 C         2.535893        -0.183118        -1.123613
 O         3.840450        -0.596438        -0.860788
 C         4.145621        -0.327275         0.449112
 C         4.499930        -1.550453         1.258401
 C         3.168069        -0.855480         1.474783
 O         1.983755        -1.453307         0.910205
 H         0.169451         0.397492         1.150371
 H         0.669243         1.386618        -0.086456
 H        -0.576092         0.238343        -0.666442
 H         1.978119        -2.343547        -1.339545
 H         0.816949        -0.981769        -2.200839
 H         2.447377         0.792050        -1.606650
 H         4.734524         0.527120         0.483722
 H         4.502269        -2.413015         0.664350
 H         5.241655        -1.554695         2.006990
 H         3.055037        -0.287090         2.424100
