19
Iteration:  4282charge 0 multiplicity 1
 C         0.485344         0.377129         0.251482
 C         1.473785        -0.605535        -0.230391
 C         1.512920        -1.266601        -1.625741
 C         2.615144        -0.196318        -1.149723
 O         3.921042        -0.517793        -0.831781
 C         4.197403        -0.271667         0.564589
 C         4.396241        -1.519757         1.319949
 C         3.068723        -0.935198         1.438778
 O         1.944324        -1.474053         0.798265
 H        -0.108020         0.851555        -0.614415
 H        -0.368416        -0.180842         0.854666
 H         0.921450         1.237612         0.797542
 H         1.653286        -2.329632        -1.591435
 H         0.783272        -0.775457        -2.307771
 H         2.528263         0.757921        -1.606628
 H         4.706775         0.596708         0.757028
 H         4.547269        -2.453710         0.741553
 H         5.133470        -1.784707         2.114636
 H         2.801544        -0.465615         2.281102
