19
Iteration:  2363
 C         0.311857         0.248031         0.063588
 C         1.550961        -0.579200        -0.226323
 C         1.617296        -1.369295        -1.466574
 C         2.557751        -0.187632        -1.226924
 O         3.949160        -0.283829        -0.878354
 C         4.185042        -0.408493         0.536307
 C         4.317752        -1.759916         1.147149
 C         3.135398        -0.842637         1.589101
 O         1.971712        -1.291053         0.970965
 H         0.513686         1.090208         0.791116
 H        -0.017839         0.853800        -0.826761
 H        -0.478288        -0.392373         0.635218
 H         1.934599        -2.405096        -1.306934
 H         0.991049        -1.049974        -2.315888
 H         2.329138         0.771623        -1.731653
 H         4.975566         0.458118         0.854806
 H         4.245098        -2.825792         0.749334
 H         5.122037        -1.766088         1.928442
 H         2.978670        -0.165246         2.465174
