19
Iteration:   751
 C         0.307879         0.264348         0.133957
 C         1.460149        -0.622530        -0.233715
 C         1.660680        -1.276310        -1.580797
 C         2.523668        -0.132957        -1.203163
 O         3.867370        -0.394463        -0.885088
 C         4.227555        -0.380863         0.551912
 C         4.428057        -1.677107         1.285264
 C         3.196829        -0.861626         1.471842
 O         1.946445        -1.362046         0.943497
 H         0.735945         1.227818         0.421875
 H        -0.382098         0.654941        -0.737378
 H        -0.243086        -0.044912         0.942933
 H         2.148715        -2.176686        -1.295410
 H         0.910383        -1.385531        -2.302309
 H         2.268196         0.842681        -1.566179
 H         4.807633         0.595883         0.884985
 H         4.253699        -2.635885         0.854514
 H         5.155429        -1.869735         2.003000
 H         3.103940        -0.283721         2.472772
