19
Iteration:   632charge 0 multiplicity 1
 C         0.365491         0.292158         0.147058
 C         1.446059        -0.671666        -0.200326
 C         1.530066        -1.248905        -1.535509
 C         2.547255        -0.120920        -1.166386
 O         3.849294        -0.523249        -0.862861
 C         4.218516        -0.369758         0.505063
 C         4.443437        -1.550787         1.367298
 C         3.131937        -0.800929         1.422596
 O         2.025943        -1.450127         0.849240
 H         0.536227         0.720796         1.070193
 H         0.410140         1.228025        -0.604786
 H        -0.579518        -0.164434         0.136601
 H         1.979333        -2.219795        -1.540033
 H         0.866428        -0.915223        -2.310307
 H         2.584412         0.903527        -1.553955
 H         4.704418         0.540146         0.902786
 H         4.495764        -2.536897         0.946817
 H         5.339784        -1.555333         1.975383
 H         2.901223        -0.210259         2.435139
