19
Iteration:  1378charge 0 multiplicity 1
 C         0.297586         0.257162         0.327305
 C         1.482567        -0.598166        -0.151715
 C         1.603228        -1.120880        -1.573990
 C         2.643348        -0.162347        -1.236005
 O         3.904231        -0.702399        -0.898074
 C         4.190154        -0.299232         0.434303
 C         4.353390        -1.483290         1.420248
 C         3.098892        -0.748524         1.451593
 O         2.039193        -1.517636         0.753942
 H         0.431712         0.802771         1.229216
 H         0.203221         1.035867        -0.453486
 H        -0.486681        -0.526004         0.661681
 H         1.840843        -2.189136        -1.614800
 H         0.862367        -0.667388        -2.257164
 H         2.576012         0.900579        -1.633464
 H         4.779522         0.559543         0.509300
 H         4.258388        -2.401690         0.805986
 H         5.017303        -1.477974         2.281023
 H         2.835166        -0.090592         2.428925
