19
Iteration:  3157
 C         0.277461         0.213007         0.247147
 C         1.499890        -0.489863        -0.222406
 C         1.606612        -1.265672        -1.525805
 C         2.560923        -0.175583        -1.193125
 O         3.925885        -0.488541        -0.942240
 C         4.178292        -0.393527         0.458870
 C         4.386912        -1.696223         1.382670
 C         3.178251        -0.771268         1.438578
 O         1.986968        -1.302872         0.889896
 H         0.219595         0.545127         1.369062
 H         0.117859         1.010104        -0.358873
 H        -0.586199        -0.497535         0.147574
 H         1.983295        -2.223393        -1.253611
 H         0.873198        -1.105450        -2.347836
 H         2.400090         0.645171        -1.868003
 H         4.983501         0.447810         0.632966
 H         4.392743        -2.641150         0.783597
 H         5.260762        -1.859551         2.073335
 H         2.929778        -0.128179         2.344525
