19
Iteration:  2034
 C         0.339969         0.396166         0.063219
 C         1.482878        -0.627246        -0.225051
 C         1.603969        -1.279866        -1.513722
 C         2.525150        -0.122874        -1.157688
 O         3.886775        -0.407750        -0.859965
 C         4.173830        -0.391181         0.574705
 C         4.462453        -1.681230         1.319110
 C         3.143175        -0.951955         1.410236
 O         1.978467        -1.375423         0.885183
 H         0.692126         1.254447         0.668319
 H        -0.131067         0.664362        -0.831088
 H        -0.256891        -0.088654         0.849265
 H         2.161868        -2.217973        -1.310357
 H         0.823941        -1.303100        -2.277280
 H         2.223130         0.829464        -1.591739
 H         4.556704         0.553061         0.892450
 H         4.555908        -2.636231         0.867453
 H         5.228899        -1.693328         2.042239
 H         2.962378        -0.357828         2.354104
