19
Iteration:  1217charge 0 multiplicity 1
 C         0.167311         0.183165        -0.006680
 C         1.511580        -0.520977        -0.172586
 C         1.583759        -1.216952        -1.493321
 C         2.559215        -0.081549        -1.086294
 O         3.873454        -0.492247        -0.867149
 C         4.242603        -0.423012         0.435366
 C         4.500521        -1.677129         1.307019
 C         3.216213        -0.863685         1.456190
 O         1.982367        -1.346426         0.979274
 H         0.088475         0.900388         0.858677
 H         0.008967         0.863924        -0.773259
 H        -0.617615        -0.468320         0.244372
 H         1.942464        -2.251691        -1.668391
 H         0.899075        -0.897619        -2.286053
 H         2.463518         0.939245        -1.654703
 H         4.911659         0.447016         0.656461
 H         4.328298        -2.663340         0.862783
 H         5.267795        -1.561418         2.082847
 H         3.080749        -0.114682         2.331898
