19
Iteration:  1864charge 0 multiplicity 1
 C         0.298664         0.303030         0.128608
 C         1.518923        -0.591812        -0.181627
 C         1.683741        -1.392748        -1.454814
 C         2.554689        -0.151572        -1.157965
 O         3.971561        -0.281710        -0.892814
 C         4.162667        -0.420252         0.485200
 C         4.390216        -1.758421         1.216448
 C         3.134336        -0.831847         1.480559
 O         1.889889        -1.321857         0.914339
 H         0.716224         1.145997         0.755710
 H        -0.229490         0.759439        -0.739002
 H        -0.471002        -0.258862         0.648739
 H         2.011754        -2.446582        -1.225794
 H         1.048741        -1.212646        -2.326479
 H         2.439072         0.762335        -1.699020
 H         4.839967         0.402901         0.831624
 H         4.181775        -2.597345         0.620245
 H         5.194818        -1.858326         1.911442
 H         3.004555        -0.333972         2.401153
