19
Iteration:  2111
 C         0.075817         0.155618         0.064341
 C         1.495854        -0.485049        -0.177195
 C         1.709045        -1.264819        -1.497059
 C         2.576883        -0.012764        -1.208472
 O         3.948628        -0.399918        -0.879490
 C         4.205819        -0.521205         0.450321
 C         4.377629        -1.850752         1.289213
 C         3.239880        -0.806960         1.533419
 O         1.980974        -1.221619         0.937285
 H         0.098287         0.712750         1.025091
 H        -0.182072         0.860316        -0.667300
 H        -0.650511        -0.746801         0.091834
 H         2.182880        -2.208119        -1.265189
 H         0.952230        -1.115271        -2.307407
 H         2.540848         0.950877        -1.685057
 H         4.968760         0.269766         0.714857
 H         4.138444        -2.821542         0.934063
 H         5.083379        -1.788675         2.027108
 H         3.264855        -0.152566         2.471769
