19
Iteration:  3063
 C         0.359238         0.386843         0.284621
 C         1.523771        -0.588929        -0.249375
 C         1.559376        -1.307703        -1.623751
 C         2.525877        -0.157645        -1.129330
 O         3.863309        -0.632489        -0.836398
 C         4.124333        -0.285433         0.502057
 C         4.477912        -1.521306         1.348886
 C         3.132920        -0.888383         1.419100
 O         1.985899        -1.428545         0.822312
 H         0.819130         0.881725         1.127196
 H         0.181013         1.227253        -0.528393
 H        -0.477637        -0.203753         0.712893
 H         2.070122        -2.275697        -1.555147
 H         0.932193        -1.040602        -2.420660
 H         2.732705         0.616497        -1.853049
 H         4.507068         0.701455         0.667394
 H         4.641868        -2.440356         0.775752
 H         5.130565        -1.306870         2.177133
 H         2.868080        -0.267593         2.214158
