19
Iteration:  2495charge 0 multiplicity 1
 C         0.496596         0.316784         0.349324
 C         1.579894        -0.557418        -0.232443
 C         1.515032        -1.257895        -1.562467
 C         2.584763        -0.214804        -1.230432
 O         3.861591        -0.636627        -0.917726
 C         4.143207        -0.324025         0.473992
 C         4.384093        -1.449554         1.453638
 C         2.992907        -0.822800         1.450463
 O         2.066442        -1.447293         0.742529
 H         0.367783         0.206353         1.400264
 H         0.347802         1.349195        -0.092585
 H        -0.504096        -0.113203        -0.053998
 H         1.772936        -2.260469        -1.505246
 H         0.830211        -0.989934        -2.339630
 H         2.556263         0.814668        -1.645370
 H         4.883456         0.540291         0.827104
 H         4.285936        -2.392717         0.950432
 H         5.083398        -1.323195         2.287671
 H         2.612848        -0.205377         2.260177
