19
Iteration:  1030charge 0 multiplicity 1
 C         0.183291         0.225943         0.025711
 C         1.541339        -0.580336        -0.152134
 C         1.688709        -1.265451        -1.512899
 C         2.545879        -0.113092        -1.065284
 O         3.886533        -0.468501        -0.949463
 C         4.249030        -0.420621         0.456024
 C         4.370154        -1.686720         1.253465
 C         3.185338        -0.709582         1.484382
 O         1.977505        -1.337134         0.977066
 H         0.217766         0.770653         1.029243
 H         0.151563         0.932755        -0.719907
 H        -0.647577        -0.543572         0.071167
 H         1.994638        -2.292326        -1.487568
 H         0.787518        -1.171949        -2.066670
 H         2.539869         0.940962        -1.488539
 H         5.103446         0.245151         0.720712
 H         4.036831        -2.631879         0.819706
 H         5.166538        -1.776218         1.973309
 H         3.100439        -0.403639         2.554112
