19
Iteration:  4848
 C         0.572823         0.466209         0.320370
 C         1.571036        -0.521807        -0.257052
 C         1.565138        -1.318949        -1.594526
 C         2.569083        -0.216683        -1.253138
 O         3.893732        -0.493219        -0.855315
 C         4.035957        -0.373059         0.545365
 C         4.474507        -1.544754         1.396890
 C         3.041390        -0.947262         1.447391
 O         1.883325        -1.477023         0.776030
 H         0.165077         0.961250        -0.578101
 H        -0.210753        -0.082265         0.890736
 H         1.233952         1.097353         0.957563
 H         1.862391        -2.400867        -1.444374
 H         0.792373        -1.175463        -2.295083
 H         2.449281         0.600172        -1.887039
 H         4.371787         0.626442         0.925246
 H         4.528396        -2.444830         0.814995
 H         5.171894        -1.354550         2.153071
 H         2.678529        -0.259230         2.182541
