19
Iteration:  3556
 C         0.479942         0.340644         0.350235
 C         1.500651        -0.574120        -0.300213
 C         1.478486        -1.223516        -1.644610
 C         2.541454        -0.198188        -1.302866
 O         3.880818        -0.558134        -0.795719
 C         4.169449        -0.329195         0.576138
 C         4.395351        -1.581032         1.440409
 C         3.090474        -0.881526         1.497861
 O         2.041559        -1.406439         0.720179
 H        -0.232102         0.765319        -0.357935
 H         0.001245        -0.404834         0.968256
 H         0.962037         1.144291         0.832322
 H         1.720716        -2.275455        -1.821866
 H         0.755775        -0.920009        -2.386677
 H         2.614143         0.715360        -1.878705
 H         4.783540         0.679804         0.613125
 H         4.365616        -2.534972         0.873852
 H         5.063281        -1.504670         2.304255
 H         2.776871        -0.298494         2.374615
