19
Iteration:  1019
 C         0.186845         0.215857         0.060461
 C         1.520757        -0.614832        -0.103602
 C         1.668497        -1.268465        -1.475098
 C         2.636505        -0.096212        -1.157839
 O         3.979194        -0.484005        -0.941493
 C         4.183537        -0.402743         0.460965
 C         4.332958        -1.716399         1.167962
 C         3.146894        -0.748671         1.530698
 O         1.981247        -1.303993         1.034267
 H         0.091478         0.819846         1.001324
 H         0.008305         0.867754        -0.725260
 H        -0.734851        -0.438622        -0.039783
 H         2.335545        -2.109239        -1.461811
 H         0.843467        -1.284424        -2.161583
 H         2.370103         0.928274        -1.511214
 H         4.887150         0.426598         0.639524
 H         3.935269        -2.509523         0.547955
 H         5.214773        -1.904703         1.765693
 H         3.015156        -0.033566         2.384390
