19
Iteration:  3319charge 0 multiplicity 1
 C         0.352747         0.301117         0.208703
 C         1.470817        -0.686827        -0.230187
 C         1.535431        -1.098141        -1.682241
 C         2.575568        -0.109304        -1.105059
 O         3.913728        -0.671054        -0.896975
 C         4.183879        -0.329511         0.469404
 C         4.422098        -1.556069         1.371105
 C         3.174311        -0.766649         1.453897
 O         1.990161        -1.483673         0.919175
 H         0.112564         1.206578        -0.405122
 H        -0.656579        -0.325058         0.387135
 H         0.598929         0.896618         1.137547
 H         2.025124        -2.072172        -1.890227
 H         0.752771        -0.874071        -2.353836
 H         2.542082         0.918193        -1.383552
 H         4.709028         0.551579         0.591381
 H         4.286656        -2.514780         0.810988
 H         5.076087        -1.599891         2.230314
 H         2.954356        -0.203966         2.410120
