19
Iteration:  4718
 C         0.343033         0.180511         0.145244
 C         1.528900        -0.544084        -0.203949
 C         1.634611        -1.225305        -1.560419
 C         2.571146        -0.064922        -1.219726
 O         3.888249        -0.480038        -0.883581
 C         4.187561        -0.497413         0.419808
 C         4.349276        -1.723750         1.358623
 C         3.178125        -0.777360         1.509855
 O         1.981779        -1.308508         0.951266
 H        -0.035396         0.880010        -0.649763
 H        -0.580997        -0.306660         0.559072
 H         0.469926         0.970354         0.871890
 H         1.888001        -2.268974        -1.656268
 H         0.736776        -0.896007        -2.141181
 H         2.488315         0.836881        -1.779431
 H         4.793568         0.262904         0.690819
 H         4.105008        -2.665232         0.937123
 H         5.160270        -1.707691         2.082241
 H         2.985975        -0.085930         2.329421
