19
Iteration:  3243charge 0 multiplicity 1
 C         0.397085         0.364354         0.239666
 C         1.466629        -0.605348        -0.241870
 C         1.525091        -1.198011        -1.605892
 C         2.574912        -0.221954        -1.131473
 O         3.903974        -0.592074        -0.830145
 C         4.184428        -0.269650         0.485310
 C         4.477303        -1.540658         1.307610
 C         3.112361        -0.885877         1.395609
 O         1.995573        -1.474653         0.871580
 H         0.753925         1.386476         0.270173
 H        -0.532487         0.176721        -0.288740
 H         0.056523         0.262390         1.292410
 H         1.715963        -2.309767        -1.733322
 H         0.903525        -0.901462        -2.423973
 H         2.484837         0.789412        -1.462103
 H         4.422857         0.751440         0.669141
 H         4.471353        -2.539547         0.809528
 H         5.069428        -1.414351         2.194113
 H         2.850461        -0.283392         2.339052
