19
Iteration:   813
 C         0.373684         0.293785         0.235228
 C         1.525883        -0.656685        -0.224732
 C         1.552364        -1.183895        -1.568467
 C         2.576272        -0.216525        -1.120686
 O         3.854418        -0.610559        -0.902105
 C         4.133826        -0.319133         0.503271
 C         4.462984        -1.478515         1.403573
 C         3.062398        -0.813128         1.456252
 O         2.037516        -1.480212         0.764508
 H         0.793286         0.688110         1.294164
 H         0.418790         1.282319        -0.252429
 H        -0.642111        -0.145148         0.222016
 H         1.986886        -2.182640        -1.722261
 H         0.837285        -0.824872        -2.321788
 H         2.403718         0.776617        -1.530470
 H         4.669352         0.699934         0.657983
 H         4.537257        -2.401828         0.821844
 H         5.131603        -1.069961         2.157565
 H         2.781708        -0.320949         2.375521
