19
Iteration:   554charge 0 multiplicity 1
 C         0.446315         0.289562         0.326549
 C         1.442596        -0.642524        -0.256923
 C         1.542727        -1.175242        -1.638745
 C         2.515839        -0.173253        -1.230510
 O         3.867110        -0.599598        -0.839540
 C         4.169952        -0.403490         0.498650
 C         4.454763        -1.435361         1.461163
 C         3.085106        -0.826810         1.503170
 O         2.053315        -1.503439         0.714029
 H         1.009690         1.136919         0.655111
 H        -0.211571         0.896144        -0.479221
 H        -0.172981        -0.113360         1.064245
 H         1.832337        -2.211030        -1.944975
 H         0.725588        -0.817882        -2.299087
 H         2.613853         0.763607        -1.757098
 H         4.536522         0.651469         0.763793
 H         4.486504        -2.504957         1.138290
 H         5.081323        -1.264260         2.349005
 H         2.923098         0.076491         2.271489
