19
Iteration:  3645charge 0 multiplicity 1
 C         0.257499         0.237749         0.166181
 C         1.453743        -0.520598        -0.204166
 C         1.622773        -1.177034        -1.547188
 C         2.570366        -0.090237        -1.098298
 O         3.894908        -0.612886        -0.821020
 C         4.264030        -0.388092         0.513525
 C         4.394278        -1.698377         1.279976
 C         3.155752        -0.779910         1.414559
 O         2.007583        -1.332323         0.834894
 H         0.210170         1.101868        -0.399667
 H        -0.635450        -0.445153         0.017602
 H         0.208567         0.673933         1.138054
 H         1.883642        -2.219038        -1.512611
 H         0.801821        -1.031124        -2.303900
 H         2.466817         0.828123        -1.667136
 H         5.153382         0.420082         0.702206
 H         4.150883        -2.563404         0.566825
 H         5.043527        -1.785573         2.208612
 H         3.097062        -0.283412         2.452574
