19
Iteration:  4772charge 0 multiplicity 1
 C         0.234753         0.295425         0.142288
 C         1.480379        -0.515945        -0.194066
 C         1.545692        -1.079620        -1.594857
 C         2.610415        -0.083818        -1.149240
 O         3.895712        -0.739941        -0.887127
 C         4.211037        -0.489472         0.444880
 C         4.569566        -1.577544         1.406092
 C         3.155244        -0.824639         1.474683
 O         1.940696        -1.356850         0.891271
 H        -0.148859         0.765261        -0.805253
 H        -0.545458        -0.541195         0.327765
 H         0.224319         0.786114         1.138100
 H         2.057693        -2.065188        -1.747545
 H         0.848542        -0.806146        -2.348690
 H         2.642670         0.935256        -1.385963
 H         4.638889         0.455289         0.614081
 H         4.526082        -2.513881         0.933363
 H         5.211726        -1.366366         2.230674
 H         2.917485        -0.225530         2.338633
