19
Iteration:  3866charge 0 multiplicity 1
 C         0.280692         0.156887         0.155571
 C         1.531157        -0.466570        -0.180185
 C         1.639496        -1.105959        -1.502264
 C         2.564801        -0.059278        -1.123820
 O         3.826654        -0.719503        -0.815427
 C         4.209166        -0.371457         0.490743
 C         4.475464        -1.645331         1.276340
 C         3.161640        -0.811385         1.441633
 O         1.974502        -1.333897         0.833547
 H         0.061701         0.891250        -0.621754
 H        -0.602931        -0.394836         0.051869
 H         0.262820         0.654567         1.093508
 H         1.757793        -2.298293        -1.414734
 H         0.934902        -0.837708        -2.351693
 H         2.771636         0.910068        -1.678528
 H         4.818806         0.612314         0.531850
 H         4.252526        -2.493770         0.703671
 H         5.117606        -1.663893         2.083858
 H         2.898494        -0.317405         2.338787
