19
Iteration:   454charge 0 multiplicity 1
 C         0.231537         0.249006        -0.022313
 C         1.478670        -0.575591        -0.147156
 C         1.607938        -1.274145        -1.499147
 C         2.502643        -0.137394        -1.132921
 O         3.921354        -0.451929        -0.870421
 C         4.256496        -0.421560         0.470122
 C         4.494463        -1.680432         1.186665
 C         3.189392        -0.875112         1.495774
 O         1.938392        -1.270883         1.066264
 H         0.014417         0.771876         0.959161
 H         0.052125         1.094324        -0.789175
 H        -0.645465        -0.385864        -0.129100
 H         2.084268        -2.208400        -1.335019
 H         0.957654        -1.448525        -2.350597
 H         2.425566         0.811703        -1.603944
 H         4.888667         0.516435         0.720173
 H         4.313186        -2.586557         0.647667
 H         5.246631        -1.692486         1.951587
 H         3.213079        -0.146706         2.311587
