19
Iteration:   253
 C         0.279109         0.323164         0.217814
 C         1.447460        -0.595933        -0.212105
 C         1.604422        -1.334771        -1.546426
 C         2.566112        -0.175203        -1.239677
 O         3.905752        -0.529948        -0.950414
 C         4.235154        -0.389792         0.475955
 C         4.493169        -1.605230         1.395292
 C         3.140866        -0.817203         1.448723
 O         1.960339        -1.343575         0.951585
 H         0.458142         0.644152         1.276544
 H         0.269582         1.234189        -0.377054
 H        -0.764034        -0.111779         0.055296
 H         2.104595        -2.304096        -1.726844
 H         0.789133        -1.000390        -2.243335
 H         2.260679         0.785187        -1.710425
 H         4.680015         0.658660         0.620437
 H         4.531739        -2.501887         0.786670
 H         5.126907        -1.510609         2.290812
 H         2.931278        -0.208369         2.253530
