19
Iteration:  4191charge 0 multiplicity 1
 C         0.284036         0.205835         0.234939
 C         1.531969        -0.556206        -0.215250
 C         1.564250        -1.208451        -1.560545
 C         2.617376        -0.047469        -1.150121
 O         3.914796        -0.520167        -0.974049
 C         4.201580        -0.462159         0.468719
 C         4.348309        -1.692244         1.401751
 C         3.149207        -0.806719         1.436116
 O         1.967484        -1.323740         0.915119
 H         0.078479         0.989065        -0.462366
 H        -0.488158        -0.562148        -0.066617
 H         0.331971         0.613349         1.238086
 H         2.199566        -2.069797        -1.552146
 H         0.894462        -0.895527        -2.358598
 H         2.663331         0.947055        -1.723477
 H         5.116168         0.304011         0.673835
 H         4.085867        -2.695284         0.999122
 H         5.118232        -1.523316         2.076842
 H         2.960075        -0.220797         2.448966
