19
Iteration:  1677charge 0 multiplicity 1
 C         0.516950         0.327609         0.324734
 C         1.479833        -0.592176        -0.252247
 C         1.512561        -1.210959        -1.653492
 C         2.585520        -0.164350        -1.212580
 O         3.816871        -0.652018        -0.757115
 C         4.132218        -0.260854         0.548992
 C         4.442177        -1.431162         1.437574
 C         3.043376        -0.896514         1.418318
 O         2.034686        -1.536953         0.665256
 H         1.218935         0.849213         1.047383
 H         0.352192         1.142019        -0.327436
 H        -0.449634        -0.007693         0.707790
 H         1.789228        -2.310928        -1.806128
 H         0.807140        -0.744401        -2.451261
 H         2.493507         0.788524        -1.744403
 H         4.527359         0.673587         0.778591
 H         4.861486        -2.275791         0.813636
 H         5.005487        -1.265528         2.415839
 H         2.652411        -0.524727         2.413657
