19
Iteration:  2748
 C         0.397081         0.288613         0.298809
 C         1.568834        -0.605372        -0.203510
 C         1.485576        -1.223713        -1.595918
 C         2.529449        -0.237375        -1.269060
 O         3.827608        -0.632899        -0.855935
 C         4.213364        -0.383591         0.421031
 C         4.395695        -1.437910         1.437666
 C         3.102464        -0.748725         1.451008
 O         2.072052        -1.428573         0.826101
 H        -0.304334        -0.392716         0.740746
 H         0.872443         1.019869         1.039938
 H         0.084582         0.840452        -0.585832
 H         1.776443        -2.300953        -1.591110
 H         0.752593        -0.857299        -2.441167
 H         2.449834         0.744415        -1.827403
 H         4.837132         0.514254         0.680757
 H         4.494463        -2.514915         1.055182
 H         4.979535        -1.330670         2.430274
 H         2.792257         0.003970         2.211024
