19
Iteration:  2246
 C         0.510714         0.250253         0.385284
 C         1.496967        -0.648275        -0.250909
 C         1.603903        -1.176159        -1.683539
 C         2.595621        -0.083202        -1.164114
 O         3.869894        -0.638789        -0.967714
 C         4.163203        -0.316123         0.495403
 C         4.315017        -1.526088         1.542479
 C         3.024914        -0.782026         1.374289
 O         2.017655        -1.467921         0.753542
 H         0.884048         0.987984         1.045262
 H        -0.172742         0.819624        -0.337598
 H        -0.130159        -0.347626         1.102660
 H         1.946026        -2.202209        -1.725377
 H         0.834129        -0.997025        -2.476456
 H         2.564321         1.037113        -1.514968
 H         4.782013         0.470929         0.646742
 H         4.369696        -2.679245         1.314476
 H         5.052097        -1.354952         2.443733
 H         2.584725        -0.081967         2.246940
