19
Iteration:  1790
 C         0.218658         0.180426         0.095545
 C         1.520602        -0.524621        -0.204366
 C         1.734664        -1.262219        -1.444760
 C         2.600517        -0.109939        -1.178648
 O         3.960991        -0.426679        -0.962152
 C         4.203333        -0.381471         0.514076
 C         4.400273        -1.780543         1.159301
 C         3.135380        -0.925055         1.518827
 O         1.832566        -1.197878         1.075365
 H         0.315832         0.978056         0.910501
 H        -0.194027         0.734262        -0.840639
 H        -0.491153        -0.523881         0.160038
 H         2.259586        -2.190340        -1.241354
 H         0.991215        -1.294037        -2.177191
 H         2.600022         0.807626        -1.724430
 H         4.852768         0.589812         0.701988
 H         4.263571        -2.442513         0.350353
 H         5.196640        -1.992336         1.837491
 H         3.183274        -0.449576         2.418927
