19
Iteration:  4514
 C         0.427769         0.384906         0.131505
 C         1.593550        -0.638319        -0.213963
 C         1.506339        -1.191790        -1.569562
 C         2.522211        -0.149630        -1.188773
 O         3.820172        -0.575190        -0.838888
 C         4.126732        -0.330674         0.563649
 C         4.486421        -1.598437         1.291609
 C         3.148588        -0.865717         1.530915
 O         2.009373        -1.480437         0.851317
 H         0.224684         0.965382        -0.788980
 H        -0.536600         0.046939         0.442728
 H         0.690803         1.144151         0.843933
 H         1.832288        -2.215897        -1.813439
 H         0.518147        -1.033596        -2.162504
 H         2.603731         0.967806        -1.398107
 H         4.491947         0.716531         0.675683
 H         4.416881        -2.539128         0.748039
 H         5.241567        -1.619362         2.051762
 H         2.944694        -0.303620         2.378643
