19
Iteration:    99charge 0 multiplicity 1
 C         0.380112         0.286193         0.157439
 C         1.482893        -0.611260        -0.147193
 C         1.512082        -1.224743        -1.495267
 C         2.561630        -0.162685        -1.134591
 O         3.910109        -0.649754        -0.897036
 C         4.288537        -0.311276         0.411817
 C         4.491988        -1.400638         1.336335
 C         3.080397        -0.938236         1.442304
 O         1.906883        -1.423412         0.843658
 H         0.560309         0.781845         1.127076
 H         0.419034         1.141714        -0.691955
 H        -0.604320        -0.191113         0.206552
 H         1.947792        -2.199755        -1.605651
 H         0.675867        -0.975994        -2.157536
 H         2.543785         0.843344        -1.459662
 H         4.651980         0.649965         0.694975
 H         4.650368        -2.366869         1.032646
 H         5.015958        -1.171973         2.234190
 H         2.933104        -0.425487         2.338270
