19
Iteration:  2505
 C         0.501112         0.282618         0.372180
 C         1.561950        -0.577101        -0.235462
 C         1.474016        -1.283307        -1.602507
 C         2.602530        -0.191865        -1.253238
 O         3.929364        -0.573710        -0.885924
 C         4.127779        -0.334434         0.489899
 C         4.311803        -1.496314         1.475637
 C         3.055382        -0.716422         1.449941
 O         2.017492        -1.494414         0.766568
 H         0.431334         0.282586         1.457833
 H         0.837063         1.306189         0.144600
 H        -0.444256        -0.175561        -0.097228
 H         1.657405        -2.313051        -1.709072
 H         0.778538        -0.903634        -2.336975
 H         2.430441         0.548973        -2.026800
 H         4.765576         0.691510         0.390895
 H         4.342849        -2.423662         0.909474
 H         5.132864        -1.411128         2.212268
 H         2.743813        -0.142580         2.324475
