19
Iteration:  4286charge 0 multiplicity 1
 C         0.496980         0.386622         0.266832
 C         1.495715        -0.607875        -0.237125
 C         1.488878        -1.300290        -1.651572
 C         2.563685        -0.196216        -1.156716
 O         3.929911        -0.493443        -0.778929
 C         4.173275        -0.284026         0.558164
 C         4.386707        -1.552888         1.321239
 C         3.053267        -0.895428         1.399154
 O         1.969979        -1.499455         0.810422
 H        -0.053077         0.875854        -0.592333
 H        -0.285752        -0.089112         0.807549
 H         1.087132         1.228844         0.812003
 H         1.831371        -2.349160        -1.703535
 H         0.831358        -0.754985        -2.330769
 H         2.561518         0.798034        -1.670992
 H         4.804138         0.668012         0.650297
 H         4.353547        -2.474218         0.659573
 H         5.129591        -1.629024         2.122374
 H         2.876088        -0.420546         2.461994
