19
Iteration:  2885
 C         0.302728         0.265069         0.185754
 C         1.465229        -0.586042        -0.236187
 C         1.605923        -1.340293        -1.486053
 C         2.622976        -0.212624        -1.263381
 O         3.914034        -0.412362        -0.911147
 C         4.173431        -0.426374         0.530531
 C         4.374367        -1.679316         1.230124
 C         3.161618        -0.818384         1.523122
 O         2.003559        -1.255244         0.970047
 H         0.251973         0.496022         1.330206
 H         0.202075         1.318106        -0.172233
 H        -0.625595        -0.208454        -0.302952
 H         1.807215        -2.406738        -1.434443
 H         1.005947        -1.020742        -2.287452
 H         2.482292         0.574090        -1.964360
 H         4.715019         0.564114         0.726358
 H         4.153959        -2.624914         0.741873
 H         5.233270        -1.651571         1.886327
 H         3.059560        -0.204526         2.449277
