19
Iteration:  2561charge 0 multiplicity 1
 C         0.340931         0.345069         0.143885
 C         1.521688        -0.576737        -0.190036
 C         1.572443        -1.249209        -1.510076
 C         2.574512        -0.112521        -1.215021
 O         3.842529        -0.669755        -0.865209
 C         4.078843        -0.354465         0.501859
 C         4.541078        -1.500023         1.336574
 C         3.122025        -0.884754         1.482147
 O         2.005746        -1.426531         0.869980
 H        -0.076044         0.209928         1.095131
 H         0.457922         1.437593         0.016101
 H        -0.404662         0.329597        -0.652022
 H         2.083381        -2.138433        -1.493274
 H         0.770282        -1.025156        -2.139120
 H         2.576950         0.906567        -1.520178
 H         4.654412         0.628673         0.480725
 H         4.669054        -2.378368         0.730583
 H         5.206963        -1.460938         2.115500
 H         2.908591        -0.414339         2.418776
