19
Iteration:   957
 C         0.241997         0.324673         0.018490
 C         1.476698        -0.569354        -0.173770
 C         1.673222        -1.337070        -1.431380
 C         2.598408        -0.183010        -1.162479
 O         3.852515        -0.341951        -0.874010
 C         4.224739        -0.294713         0.536194
 C         4.469779        -1.756057         1.182997
 C         3.201228        -0.893884         1.492795
 O         1.904469        -1.374941         0.977587
 H         0.392395         1.459465         0.296897
 H        -0.279208         0.431668        -0.980866
 H        -0.329141        -0.260965         0.668744
 H         1.868451        -2.356906        -1.228737
 H         0.908590        -1.188347        -2.144380
 H         2.487991         0.743429        -1.711577
 H         4.989252         0.598897         0.754117
 H         4.358932        -2.522714         0.454355
 H         5.144385        -2.002714         1.962284
 H         3.150954        -0.339234         2.443592
