19
Iteration:  2888charge 0 multiplicity 1
 C         0.296559         0.273028         0.195636
 C         1.479431        -0.596926        -0.213259
 C         1.588674        -1.357745        -1.474977
 C         2.616495        -0.186811        -1.250634
 O         3.943072        -0.415616        -0.901936
 C         4.156130        -0.434980         0.519320
 C         4.368059        -1.671391         1.230867
 C         3.150919        -0.795423         1.503096
 O         2.003182        -1.258498         0.952609
 H         0.275675         0.411517         1.281411
 H         0.190497         1.319502        -0.290172
 H        -0.567261        -0.264193        -0.291228
 H         1.842348        -2.350725        -1.392469
 H         1.017749        -1.018286        -2.318577
 H         2.478565         0.618807        -1.995271
 H         4.726022         0.534126         0.737651
 H         4.062068        -2.690273         0.797246
 H         5.323802        -1.691098         1.817510
 H         3.077180        -0.260974         2.445634
