19
Iteration:  1075
 C         0.303501         0.277104         0.190892
 C         1.497581        -0.565852        -0.228214
 C         1.610694        -1.179317        -1.578673
 C         2.577454        -0.171332        -1.160925
 O         3.883623        -0.620889        -0.859916
 C         4.225426        -0.334708         0.460303
 C         4.423247        -1.512164         1.315639
 C         3.119378        -0.877469         1.543815
 O         1.975906        -1.423576         0.844508
 H         0.585207         1.066719         1.040132
 H        -0.154167         0.851358        -0.600720
 H        -0.320022        -0.489537         0.674356
 H         1.823727        -2.213975        -1.642555
 H         1.017432        -0.848510        -2.420583
 H         2.453489         0.806270        -1.763308
 H         4.829711         0.681951         0.598391
 H         4.405295        -2.515746         0.911886
 H         5.099714        -1.345601         2.129928
 H         2.859163        -0.349805         2.522428
