19
Iteration:  3481
 C         0.283567         0.236582         0.114934
 C         1.593846        -0.514842        -0.210492
 C         1.544886        -1.152957        -1.618287
 C         2.567486        -0.103359        -1.179694
 O         3.814327        -0.689806        -0.838565
 C         4.175583        -0.342147         0.586364
 C         4.524565        -1.601929         1.278162
 C         3.177230        -0.880644         1.519468
 O         1.955774        -1.332477         0.905925
 H         0.280247         1.120100        -0.395185
 H        -0.571647        -0.423096        -0.099579
 H         0.290334         0.463060         1.152967
 H         1.855789        -2.126999        -1.832154
 H         0.724429        -0.802591        -2.286878
 H         2.590536         0.777000        -1.764889
 H         4.732608         0.622010         0.674052
 H         4.429106        -2.491181         0.671784
 H         5.266999        -1.528485         2.108969
 H         3.111325        -0.371751         2.531234
