19
Iteration:   168charge 0 multiplicity 1
 C         0.217827         0.233352         0.172164
 C         1.451814        -0.598256        -0.170301
 C         1.661405        -1.271659        -1.477306
 C         2.572877        -0.157781        -1.202346
 O         4.002666        -0.438361        -0.928705
 C         4.254090        -0.385079         0.451404
 C         4.350937        -1.704290         1.265255
 C         3.180058        -0.818491         1.404933
 O         1.930246        -1.296017         0.979107
 H         0.482902         1.368873         0.355444
 H        -0.405600         0.208049        -0.642027
 H        -0.364010        -0.169205         1.092380
 H         2.153476        -2.219948        -1.215980
 H         0.958657        -1.286368        -2.334808
 H         2.501404         0.869737        -1.624103
 H         4.704328         0.627068         0.760971
 H         4.075631        -2.697899         0.854567
 H         5.064899        -1.788659         2.113426
 H         3.076578        -0.157442         2.225533
