19
Iteration:  4902
 C         0.276210         0.298292         0.090352
 C         1.489435        -0.544319        -0.242156
 C         1.565236        -1.087799        -1.578590
 C         2.584513        -0.088400        -1.099116
 O         3.841233        -0.716720        -0.862119
 C         4.182977        -0.450828         0.480889
 C         4.433887        -1.610357         1.342677
 C         3.188803        -0.779621         1.521012
 O         2.018168        -1.399499         0.869803
 H         0.041282         0.933596        -0.764881
 H        -0.405599        -0.427956         0.497765
 H         0.701923         1.010049         0.798588
 H         2.025760        -2.060458        -1.498595
 H         0.863444        -0.949582        -2.430576
 H         2.589087         0.936266        -1.347668
 H         4.888604         0.509744         0.640010
 H         4.293898        -2.597023         0.934540
 H         5.120496        -1.499452         2.140587
 H         2.914279        -0.273115         2.444525
