19
Iteration:  3982
 C         0.380025         0.311264         0.129860
 C         1.471698        -0.582574        -0.184064
 C         1.501051        -1.202178        -1.557354
 C         2.565244        -0.217972        -1.217653
 O         3.954305        -0.510554        -0.873560
 C         4.180230        -0.328152         0.507656
 C         4.486495        -1.614131         1.313108
 C         3.127426        -0.939790         1.515168
 O         1.948729        -1.367514         0.889889
 H         0.058646         1.044471        -0.619791
 H        -0.665590        -0.049605         0.379933
 H         0.679288         0.975229         0.971882
 H         1.759283        -2.251906        -1.637918
 H         0.845378        -1.021784        -2.297335
 H         2.481398         0.805104        -1.510300
 H         4.708760         0.606974         0.812087
 H         4.472075        -2.440282         0.611881
 H         5.190180        -1.636399         2.130655
 H         2.917140        -0.530039         2.535423
