19
Iteration:  2646charge 0 multiplicity 1
 C         0.257729         0.257987         0.177224
 C         1.469803        -0.620640        -0.176040
 C         1.595685        -1.343948        -1.470744
 C         2.502878        -0.206379        -1.222513
 O         3.984828        -0.432279        -0.965732
 C         4.298406        -0.418887         0.444436
 C         4.337900        -1.665876         1.339608
 C         3.154244        -0.716810         1.456710
 O         2.009917        -1.272028         0.946749
 H        -0.689622        -0.306438        -0.034707
 H         0.330962         0.366188         1.258554
 H         0.288877         1.139236        -0.529621
 H         2.055580        -2.253107        -1.492798
 H         0.800685        -1.235823        -2.118778
 H         2.306300         0.702761        -1.739574
 H         4.993780         0.406096         0.928933
 H         3.961569        -2.534009         0.857995
 H         5.114415        -1.800591         2.025933
 H         2.966517        -0.060312         2.281106
