19
Iteration:  1560
 C         0.159536         0.180282         0.023343
 C         1.428226        -0.612701        -0.152052
 C         1.665300        -1.211370        -1.589526
 C         2.510540        -0.068352        -1.111355
 O         3.927953        -0.471115        -0.877983
 C         4.274647        -0.423077         0.465616
 C         4.423848        -1.805728         1.310206
 C         3.258761        -0.837933         1.490731
 O         1.966758        -1.204815         0.989446
 H         0.432546         1.037326         0.708964
 H        -0.245180         0.660015        -0.921682
 H        -0.597465        -0.449086         0.374812
 H         2.168920        -2.206131        -1.704396
 H         0.874553        -0.793815        -2.243371
 H         2.341225         0.894253        -1.555342
 H         4.942817         0.548218         0.738766
 H         4.136834        -2.693940         0.722526
 H         5.126068        -1.902764         2.182262
 H         3.294803        -0.353994         2.395140
