19
Iteration:  3789
 C         0.459235         0.352963         0.281119
 C         1.480089        -0.581252        -0.208199
 C         1.548535        -1.173185        -1.541687
 C         2.567026        -0.188240        -1.225806
 O         3.869884        -0.564708        -0.892192
 C         4.143503        -0.343914         0.553787
 C         4.354596        -1.566142         1.382892
 C         3.062828        -0.840980         1.504866
 O         2.086514        -1.525881         0.730360
 H         0.148992         1.016167        -0.476667
 H        -0.417116        -0.117915         0.692423
 H         0.835142         1.089389         0.951368
 H         2.001197        -2.260290        -1.598197
 H         0.842919        -0.893045        -2.361576
 H         2.661797         0.790307        -1.769029
 H         4.627382         0.683236         0.741299
 H         4.243630        -2.388436         0.692073
 H         5.087354        -1.567049         2.117353
 H         2.716399        -0.251028         2.352646
