19
Iteration:  1680
 C         0.488350         0.329865         0.334044
 C         1.492172        -0.613645        -0.248880
 C         1.528373        -1.212175        -1.683464
 C         2.567796        -0.169489        -1.222650
 O         3.817931        -0.664943        -0.748999
 C         4.125665        -0.266512         0.541171
 C         4.440031        -1.454745         1.441132
 C         3.045972        -0.876747         1.433883
 O         2.037302        -1.521427         0.669486
 H         1.185607         0.895384         1.127558
 H         0.369042         1.214692        -0.434771
 H        -0.394529        -0.029712         0.781285
 H         1.740869        -2.277978        -1.807865
 H         0.879413        -0.664468        -2.423105
 H         2.468117         0.758391        -1.759937
 H         4.577297         0.747459         0.905677
 H         4.908912        -2.159547         0.735438
 H         4.987404        -1.240802         2.358706
 H         2.766920        -0.542857         2.360102
