19
Iteration:   925charge 0 multiplicity 1
 C         0.365237         0.289304         0.126541
 C         1.446189        -0.692091        -0.229473
 C         1.673671        -1.324059        -1.542226
 C         2.577327        -0.098157        -1.164284
 O         3.874400        -0.413181        -0.905486
 C         4.171236        -0.330506         0.510813
 C         4.431652        -1.683270         1.267466
 C         3.174922        -0.825095         1.515626
 O         1.919156        -1.376942         0.945979
 H         0.879058         1.272347         0.592271
 H        -0.390968         0.454453        -0.745557
 H        -0.270157        -0.047470         0.939831
 H         2.142852        -2.282705        -1.525011
 H         0.844867        -1.191096        -2.199134
 H         2.362288         0.859159        -1.626453
 H         4.812731         0.633275         0.769253
 H         4.151929        -2.485191         0.614586
 H         5.147900        -1.831996         2.035366
 H         2.977810        -0.198479         2.403033
