19
Iteration:  4592charge 0 multiplicity 1
 C         0.335789         0.220177         0.263606
 C         1.559376        -0.582398        -0.186538
 C         1.546168        -1.116031        -1.603793
 C         2.579495        -0.077397        -1.218806
 O         3.827020        -0.724346        -0.841681
 C         4.153449        -0.449978         0.482275
 C         4.363343        -1.584453         1.430173
 C         3.176123        -0.713346         1.428619
 O         2.083437        -1.373146         0.791783
 H        -0.094432         0.873946        -0.439646
 H        -0.473338        -0.409582         0.449589
 H         0.488259         0.951059         1.101444
 H         1.912294        -2.063863        -1.938928
 H         0.607896        -0.817218        -2.156297
 H         2.648998         0.968110        -1.688773
 H         4.979896         0.378874         0.600309
 H         4.234438        -2.557346         1.040975
 H         5.126380        -1.453578         2.185589
 H         2.879599        -0.104247         2.215183
