19
Iteration:  3310
 C         0.340263         0.318452         0.311920
 C         1.441893        -0.684857        -0.232809
 C         1.586578        -1.112957        -1.689921
 C         2.581853        -0.131273        -1.128410
 O         3.893414        -0.643523        -0.914433
 C         4.244484        -0.385119         0.435345
 C         4.406174        -1.524718         1.365525
 C         3.101789        -0.750573         1.451252
 O         1.990899        -1.483974         0.901743
 H         0.377561         1.056771        -0.503111
 H        -0.621502        -0.182852         0.230078
 H         0.530554         0.574460         1.370561
 H         1.982549        -2.075854        -1.730127
 H         0.931013        -0.836514        -2.461572
 H         2.675998         0.871359        -1.443545
 H         4.727497         0.520437         0.804784
 H         4.178711        -2.558044         0.976198
 H         5.172810        -1.418917         2.186547
 H         2.897393        -0.094267         2.333694
