19
Iteration:  3809charge 0 multiplicity 1
 C         0.430217         0.349719         0.256811
 C         1.517324        -0.644712        -0.211971
 C         1.560723        -1.211745        -1.579234
 C         2.540488        -0.048059        -1.115910
 O         3.894269        -0.569997        -0.909308
 C         4.188911        -0.416866         0.417688
 C         4.368237        -1.582163         1.438235
 C         3.092764        -0.811200         1.400269
 O         2.008389        -1.504864         0.767018
 H         0.324400         1.180464        -0.403939
 H        -0.517364        -0.287760         0.376438
 H         0.562900         0.921851         1.170946
 H         2.131344        -2.142324        -1.527463
 H         0.664992        -0.981729        -2.118664
 H         2.463843         1.029721        -1.349822
 H         4.858562         0.516386         0.698636
 H         4.450187        -2.671450         1.285773
 H         4.930642        -1.281711         2.332641
 H         2.743966        -0.142496         2.248107
