19
Iteration:  1994
 C         0.498710         0.295881         0.310674
 C         1.511049        -0.578153        -0.244577
 C         1.512511        -1.266394        -1.608481
 C         2.541650        -0.202327        -1.228848
 O         3.957136        -0.583183        -0.825307
 C         4.142870        -0.279689         0.552702
 C         4.344629        -1.561166         1.373405
 C         3.043880        -0.785701         1.436907
 O         2.039272        -1.456002         0.742766
 H         0.811285         0.777671         1.185314
 H         0.060027         1.078747        -0.330438
 H        -0.398685        -0.402785         0.600743
 H         1.715655        -2.330774        -1.575934
 H         0.816534        -0.839654        -2.381563
 H         2.589723         0.795025        -1.660084
 H         4.591310         0.629231         0.929063
 H         4.295709        -2.437581         0.730370
 H         5.092932        -1.480189         2.121424
 H         2.782528        -0.065790         2.313439
