19
Iteration:    26
 C         0.332095         0.342954         0.310686
 C         1.488735        -0.570859        -0.147278
 C         1.554282        -1.229518        -1.493293
 C         2.642811        -0.221100        -1.243061
 O         3.989351        -0.602441        -1.004111
 C         4.174021        -0.368465         0.390426
 C         4.365134        -1.430641         1.411936
 C         3.037881        -0.804390         1.501401
 O         2.032690        -1.527837         0.810327
 H         0.414603         0.666174         1.467889
 H         0.335276         1.180279        -0.237388
 H        -0.713242        -0.171093         0.222663
 H         1.987195        -2.226694        -1.547339
 H         0.823685        -1.040965        -2.305915
 H         2.560320         0.804990        -1.677086
 H         4.628222         0.673404         0.613911
 H         4.156751        -2.424720         1.062171
 H         5.036894        -1.368830         2.265518
 H         2.724498        -0.061036         2.176951
