19
Iteration:   367charge 0 multiplicity 1
 C         0.390435         0.332125         0.174067
 C         1.512157        -0.603632        -0.189975
 C         1.560293        -1.247141        -1.498655
 C         2.552133        -0.203234        -1.117877
 O         3.885233        -0.586938        -0.861695
 C         4.215390        -0.258705         0.500694
 C         4.433480        -1.520125         1.348448
 C         3.106380        -0.815901         1.440297
 O         1.976682        -1.483510         0.748254
 H         0.656177         1.379131         0.501266
 H        -0.377522         0.523605        -0.679698
 H        -0.094427        -0.217612         0.946887
 H         1.950220        -2.232507        -1.363348
 H         0.742704        -0.914841        -2.085675
 H         2.347558         0.782968        -1.464926
 H         4.839757         0.572769         0.542115
 H         4.305950        -2.426566         0.796732
 H         5.189469        -1.709139         2.074952
 H         2.847045        -0.263780         2.377378
