19
Iteration:  3885charge 0 multiplicity 1
 C         0.143036         0.329779         0.140126
 C         1.493808        -0.554926        -0.200163
 C         1.616503        -1.177745        -1.549859
 C         2.578247        -0.101179        -1.170938
 O         3.905944        -0.563855        -0.881612
 C         4.240246        -0.460122         0.470216
 C         4.442422        -1.659462         1.337618
 C         3.180208        -0.881364         1.475289
 O         2.006579        -1.367517         0.905811
 H        -0.310623         1.028318        -0.574809
 H        -0.751501        -0.408358         0.420504
 H         0.287327         1.061079         0.955307
 H         2.295528        -2.028409        -1.651118
 H         0.908986        -1.055333        -2.293363
 H         2.537387         0.901822        -1.563654
 H         4.896169         0.444045         0.746257
 H         4.435262        -2.607714         0.794027
 H         5.175569        -1.512226         2.065416
 H         3.032735        -0.291735         2.405851
