19
Iteration:   765
 C         0.336462         0.359422         0.213688
 C         1.470482        -0.619589        -0.232151
 C         1.618595        -1.403503        -1.575655
 C         2.513475        -0.128967        -1.204619
 O         3.911082        -0.391898        -0.799602
 C         4.184275        -0.403547         0.516191
 C         4.477050        -1.658672         1.279174
 C         3.113820        -0.856913         1.483455
 O         1.972335        -1.347330         0.870584
 H         0.665917         1.206176         0.691182
 H        -0.299428         0.608061        -0.653421
 H        -0.300392        -0.330337         0.834394
 H         2.095084        -2.372916        -1.850178
 H         0.850794        -1.106076        -2.318915
 H         2.525133         0.816850        -1.816863
 H         4.763622         0.390163         0.796436
 H         4.343889        -2.591146         0.683592
 H         5.227130        -1.410879         2.070152
 H         2.862493        -0.264737         2.390066
