19
Iteration:  4697charge 0 multiplicity 1
 C         0.359083         0.361328         0.175836
 C         1.450956        -0.552088        -0.173003
 C         1.614935        -1.347311        -1.519698
 C         2.558416        -0.189140        -1.137311
 O         3.985748        -0.337941        -0.976955
 C         4.277180        -0.404116         0.474892
 C         4.329288        -1.755766         1.336785
 C         3.144911        -0.823108         1.440340
 O         1.907960        -1.388540         0.896821
 H        -0.053139         1.057848        -0.707120
 H        -0.535962        -0.167084         0.731542
 H         0.616357         1.024859         1.002463
 H         2.183590        -2.287075        -1.393791
 H         0.872677        -1.342235        -2.384688
 H         2.237345         0.753128        -1.536989
 H         4.968864         0.267497         0.751599
 H         4.170662        -2.707215         0.911449
 H         5.033314        -1.623374         2.151602
 H         2.831583        -0.252223         2.295879
