19
Iteration:  4143
 C         0.380230         0.388512         0.131247
 C         1.525316        -0.601767        -0.177345
 C         1.541509        -1.262976        -1.588052
 C         2.560092        -0.198228        -1.172035
 O         3.937169        -0.492544        -0.786999
 C         4.139471        -0.303401         0.558688
 C         4.415739        -1.637496         1.176339
 C         3.129450        -0.922730         1.500126
 O         1.974027        -1.424257         0.867231
 H         0.080917         0.942004        -0.768096
 H        -0.418035        -0.099666         0.505385
 H         0.798495         1.151065         0.770208
 H         1.855228        -2.350322        -1.501360
 H         0.709607        -0.866906        -2.159483
 H         2.528331         0.815339        -1.473365
 H         4.541352         0.623326         0.938068
 H         4.387684        -2.447979         0.452069
 H         5.145233        -1.694331         2.075243
 H         2.930816        -0.378315         2.449997
