19
Iteration:  1908charge 0 multiplicity 1
 C         0.357584         0.249479         0.203132
 C         1.476459        -0.581284        -0.220760
 C         1.594816        -1.153835        -1.593770
 C         2.590491        -0.185148        -1.168400
 O         3.850453        -0.617013        -0.847359
 C         4.160777        -0.367072         0.550946
 C         4.477618        -1.582333         1.309046
 C         3.099922        -0.805681         1.501092
 O         2.022080        -1.358815         0.819235
 H         0.663809         0.876363         1.013926
 H        -0.054893         0.786439        -0.674861
 H        -0.395248        -0.455661         0.372860
 H         1.836799        -2.210035        -1.758564
 H         0.835525        -0.902839        -2.326385
 H         2.478127         0.821276        -1.540931
 H         4.661109         0.599503         0.879663
 H         4.154191        -2.508519         0.938259
 H         5.282555        -1.525823         1.976907
 H         2.926574        -0.186686         2.312750
