19
Iteration:  1314charge 0 multiplicity 1
 C         0.332413         0.322794         0.035462
 C         1.508497        -0.599147        -0.152408
 C         1.556702        -1.330926        -1.425218
 C         2.548950        -0.154377        -1.093310
 O         3.928679        -0.412137        -0.804630
 C         4.180130        -0.302597         0.521494
 C         4.437368        -1.638635         1.162997
 C         3.188151        -0.871325         1.451267
 O         1.968691        -1.422932         0.855408
 H         0.411419         1.299885         0.618153
 H         0.111917         0.693615        -0.964005
 H        -0.751103        -0.032758         0.623618
 H         1.936857        -2.354106        -1.337118
 H         0.919578        -1.369418        -2.321665
 H         2.353125         0.900422        -1.537480
 H         4.729643         0.520724         0.842967
 H         4.168218        -2.512759         0.557483
 H         5.135300        -1.982346         1.921256
 H         3.044360        -0.335911         2.503203
