19
Iteration:  4679
 C         0.335058         0.497599         0.203531
 C         1.427701        -0.629787        -0.224378
 C         1.653501        -1.389155        -1.472947
 C         2.550254        -0.205433        -1.194499
 O         3.914379        -0.360244        -0.827650
 C         4.195550        -0.400936         0.534217
 C         4.382137        -1.686622         1.236217
 C         3.136818        -0.863234         1.431284
 O         1.973931        -1.391083         0.853571
 H         0.138619         0.913119        -0.718055
 H        -0.464068        -0.007046         0.638083
 H         0.912998         1.040666         0.956975
 H         1.903249        -2.480364        -1.215168
 H         1.044971        -1.238297        -2.305945
 H         2.473562         0.635564        -1.948094
 H         4.707742         0.595425         0.874820
 H         4.100786        -2.488913         0.540809
 H         5.135220        -1.946534         1.983564
 H         3.098378        -0.293943         2.337380
