19
Iteration:   477
 C         0.230815         0.206104         0.100745
 C         1.478247        -0.586965        -0.230862
 C         1.660126        -1.328605        -1.510637
 C         2.530238        -0.098296        -1.158885
 O         3.845899        -0.527936        -0.895172
 C         4.258762        -0.309199         0.524407
 C         4.489691        -1.679264         1.280631
 C         3.197299        -0.926330         1.462778
 O         1.943818        -1.189408         0.988089
 H         0.170972         0.715421         1.069441
 H         0.175119         1.122824        -0.703343
 H        -0.722343        -0.244006        -0.013486
 H         1.956089        -2.335718        -1.744293
 H         0.816493        -1.119086        -2.203978
 H         2.496009         0.775595        -1.771264
 H         4.959455         0.543758         0.664762
 H         4.392286        -2.572501         0.680854
 H         5.201809        -1.653399         2.089686
 H         3.214446        -0.506560         2.551739
