19
Iteration:  4333
 C         0.474168         0.409962         0.292872
 C         1.502743        -0.612590        -0.185284
 C         1.565840        -1.249265        -1.562840
 C         2.576201        -0.165172        -1.225573
 O         3.891065        -0.482972        -0.887282
 C         4.151322        -0.386450         0.506455
 C         4.376498        -1.587476         1.344840
 C         3.063569        -0.874762         1.407456
 O         1.981660        -1.514927         0.776227
 H         0.104245         1.121378        -0.374300
 H        -0.390996        -0.189965         0.544410
 H         0.872754         0.955283         1.156848
 H         2.169044        -2.159190        -1.433835
 H         0.795729        -1.069038        -2.324277
 H         2.487841         0.862027        -1.692115
 H         4.642381         0.633200         0.911745
 H         4.563678        -2.633113         1.157450
 H         4.936596        -1.278125         2.243412
 H         2.768152        -0.122857         2.360695
