19
Iteration:   235charge 0 multiplicity 1
 C         0.284680         0.334985         0.084133
 C         1.516030        -0.619197        -0.133431
 C         1.617022        -1.247579        -1.537105
 C         2.549339        -0.201277        -1.120926
 O         3.927573        -0.550960        -0.880607
 C         4.185591        -0.358711         0.423617
 C         4.442654        -1.563626         1.183043
 C         3.191532        -0.812116         1.501372
 O         1.904282        -1.378172         0.982552
 H         0.388787         0.898299         1.134757
 H         0.054624         1.005680        -0.717173
 H        -0.628890        -0.360836         0.113121
 H         1.940079        -2.205504        -1.174424
 H         1.060449        -1.369188        -2.467620
 H         2.408454         0.850541        -1.534383
 H         4.841682         0.506987         0.746427
 H         4.201859        -2.558248         0.753915
 H         5.278302        -1.471186         1.938322
 H         3.141151        -0.247448         2.487894
