19
Iteration:   370
 C         0.376204         0.333967         0.192092
 C         1.520559        -0.604078        -0.189512
 C         1.548663        -1.289550        -1.524392
 C         2.557504        -0.174306        -1.129022
 O         3.915218        -0.567767        -0.863715
 C         4.216773        -0.270838         0.494058
 C         4.436418        -1.546850         1.352064
 C         3.109922        -0.811625         1.428205
 O         1.957968        -1.472286         0.764480
 H         0.623032         1.295369         0.497809
 H        -0.430546         0.526561        -0.698553
 H        -0.165808        -0.148670         0.985738
 H         2.011553        -2.253189        -1.273278
 H         0.700972        -0.912071        -2.136265
 H         2.353981         0.836626        -1.515745
 H         4.781243         0.630078         0.560698
 H         4.269925        -2.472420         0.813577
 H         5.235257        -1.731329         2.095147
 H         2.898763        -0.203301         2.490313
