19
Iteration:  1779
 C         0.234629         0.176017         0.065079
 C         1.508523        -0.509489        -0.168800
 C         1.669499        -1.311867        -1.517406
 C         2.562310        -0.075758        -1.139234
 O         3.964105        -0.454549        -0.887963
 C         4.248527        -0.393739         0.478868
 C         4.309419        -1.744176         1.194082
 C         3.205514        -0.913208         1.503408
 O         1.941162        -1.179894         1.012881
 H         0.198265         0.721936         1.070286
 H        -0.117185         0.777433        -0.852037
 H        -0.332736        -0.578536         0.369114
 H         2.041988        -2.328772        -1.522265
 H         1.033742        -1.067117        -2.317994
 H         2.298346         0.752023        -1.763311
 H         4.604420         0.581646         1.016187
 H         4.160470        -2.507016         0.479366
 H         5.035590        -2.006807         1.922103
 H         3.175407        -0.342572         2.332481
