19
Iteration:  1117
 C         0.505213         0.362312         0.320441
 C         1.435788        -0.610286        -0.230137
 C         1.506338        -1.226921        -1.734008
 C         2.558448        -0.225811        -1.201375
 O         3.822709        -0.581961        -0.866668
 C         4.156427        -0.323923         0.516798
 C         4.436308        -1.423059         1.483225
 C         3.063710        -0.907661         1.513043
 O         2.074231        -1.537204         0.739765
 H         1.074064         1.200254         0.812090
 H        -0.014866         0.937433        -0.387517
 H        -0.309430        -0.036948         0.990411
 H         1.860430        -2.222325        -1.847320
 H         0.910522        -0.814465        -2.526144
 H         2.563775         0.820444        -1.686671
 H         4.739590         0.577628         0.611106
 H         4.612131        -2.406888         1.084475
 H         5.042504        -1.046755         2.289177
 H         2.659613        -0.279480         2.388821
