19
Iteration:  3320charge 0 multiplicity 1
 C         0.353376         0.294353         0.195091
 C         1.475464        -0.676068        -0.218864
 C         1.535276        -1.103775        -1.681000
 C         2.574033        -0.109341        -1.107150
 O         3.912220        -0.670898        -0.892057
 C         4.177153        -0.328211         0.478314
 C         4.422039        -1.559123         1.368930
 C         3.176413        -0.775438         1.453202
 O         1.991414        -1.479040         0.916629
 H         0.071297         1.192380        -0.415268
 H        -0.617576        -0.290574         0.397565
 H         0.621347         0.892774         1.108837
 H         2.005225        -2.031667        -1.907673
 H         0.732671        -0.863333        -2.320434
 H         2.513167         0.914697        -1.366357
 H         4.726694         0.580100         0.525110
 H         4.313256        -2.516889         0.793797
 H         5.096912        -1.618230         2.250279
 H         2.955137        -0.206636         2.396679
