19
Iteration:  4461
 C         0.377702         0.393085         0.268347
 C         1.466869        -0.545928        -0.275801
 C         1.667000        -1.350323        -1.453090
 C         2.523446        -0.173756        -1.226142
 O         3.894194        -0.439927        -0.869700
 C         4.138706        -0.333874         0.538437
 C         4.405223        -1.700695         1.246082
 C         3.099700        -0.939660         1.473194
 O         1.974077        -1.353398         0.822647
 H        -0.065255         0.951451        -0.580376
 H        -0.351881        -0.187893         0.814786
 H         0.794395         1.238201         1.018430
 H         2.134135        -2.270931        -1.144026
 H         0.988140        -1.154722        -2.310328
 H         2.616621         0.579262        -2.033550
 H         4.755758         0.594863         0.800395
 H         4.389747        -2.571818         0.607349
 H         5.139480        -1.598015         2.016876
 H         2.996669        -0.498873         2.426770
