19
Iteration:  4408charge 0 multiplicity 1
 C         0.204248         0.251812         0.160154
 C         1.522096        -0.598218        -0.169547
 C         1.631836        -1.133754        -1.645089
 C         2.528024        -0.048908        -1.126898
 O         3.887019        -0.598893        -0.916887
 C         4.277346        -0.483050         0.381813
 C         4.407484        -1.615812         1.379125
 C         3.162280        -0.816611         1.415035
 O         1.989760        -1.378514         0.982477
 H        -0.165248         0.733555        -0.747457
 H        -0.608982        -0.450257         0.370674
 H         0.400072         1.012585         1.049982
 H         2.174853        -2.033296        -1.565061
 H         0.781843        -0.834997        -2.246573
 H         2.537819         1.077627        -1.148454
 H         5.112521         0.308024         0.611202
 H         4.238141        -2.626998         1.035761
 H         5.083640        -1.472843         2.198952
 H         3.056673        -0.171863         2.371707
