19
Iteration:   306
 C         0.391818         0.294916         0.336968
 C         1.455388        -0.618326        -0.183081
 C         1.567554        -1.143683        -1.591829
 C         2.608469        -0.209949        -1.196137
 O         3.919669        -0.716908        -0.859740
 C         4.102934        -0.275116         0.398152
 C         4.424053        -1.462977         1.436800
 C         3.126104        -0.801036         1.355859
 O         2.031516        -1.482624         0.802811
 H         0.650044         0.693940         1.277812
 H         0.220637         1.116830        -0.420126
 H        -0.589804        -0.183040         0.424412
 H         1.846030        -2.185540        -1.791566
 H         0.604155        -0.974760        -2.167123
 H         2.532418         0.838119        -1.574975
 H         4.622015         0.717238         0.517842
 H         4.508214        -2.497447         1.139972
 H         4.946741        -1.023070         2.294105
 H         2.768968        -0.156120         2.243075
