19
Iteration:  2092charge 0 multiplicity 1
 C         0.184894         0.132358         0.059040
 C         1.517873        -0.537703        -0.198963
 C         1.682010        -1.224908        -1.510289
 C         2.525134        -0.023384        -1.145075
 O         3.909797        -0.449790        -0.877414
 C         4.393590        -0.449191         0.520132
 C         4.386990        -1.792255         1.254338
 C         3.151952        -0.913377         1.456317
 O         1.876664        -1.151438         0.997628
 H         0.189876         0.893772         0.756247
 H        -0.240227         0.577014        -0.837449
 H        -0.565316        -0.653930         0.259242
 H         2.263002        -2.158251        -1.513247
 H         0.897523        -1.037750        -2.247979
 H         2.436060         0.864964        -1.777017
 H         5.085310         0.220849         0.767952
 H         4.259230        -2.698353         0.661836
 H         5.170814        -1.678739         2.028768
 H         3.248323        -0.422770         2.477865
