19
Iteration:  4356
 C         0.291577         0.305768         0.249373
 C         1.486691        -0.552022        -0.202951
 C         1.471931        -1.177165        -1.646440
 C         2.598752        -0.185051        -1.120074
 O         3.939361        -0.651820        -0.864140
 C         4.221643        -0.315418         0.509307
 C         4.467509        -1.545916         1.372288
 C         3.170205        -0.836370         1.464670
 O         1.952868        -1.439081         0.795989
 H         0.013671         1.047261        -0.442976
 H        -0.644220        -0.290443         0.413710
 H         0.627299         0.821282         1.076935
 H         1.740741        -2.186767        -1.756957
 H         0.943321        -0.567172        -2.419024
 H         2.646200         0.700129        -1.751473
 H         4.746890         0.674345         0.769773
 H         4.536132        -2.388658         0.669518
 H         5.184058        -1.738321         2.181216
 H         2.869975        -0.377377         2.553390
