19
Iteration:  4636
 C         0.373782         0.413559         0.132250
 C         1.504173        -0.606592        -0.199598
 C         1.539028        -1.240313        -1.524963
 C         2.539291        -0.212943        -1.179731
 O         3.918740        -0.525729        -0.858228
 C         4.147618        -0.339809         0.542882
 C         4.545503        -1.613655         1.235166
 C         3.098750        -0.935656         1.431555
 O         1.894845        -1.420540         0.963165
 H         0.104714         0.912844        -0.769798
 H        -0.533889         0.023104         0.478576
 H         0.859933         1.246705         0.736902
 H         2.025051        -2.233682        -1.689043
 H         0.876395        -0.923946        -2.271316
 H         2.641264         0.764948        -1.679592
 H         4.455725         0.774122         0.856217
 H         4.762586        -2.521803         0.675101
 H         5.207638        -1.577726         2.119863
 H         3.038272        -0.334513         2.337238
