19
Iteration:   726
 C         0.229507         0.246046         0.053816
 C         1.533853        -0.611149        -0.143851
 C         1.685520        -1.282518        -1.466681
 C         2.568604        -0.097397        -1.106752
 O         3.932708        -0.443149        -0.850115
 C         4.230503        -0.410564         0.462974
 C         4.338339        -1.648576         1.157442
 C         3.161253        -0.846395         1.449920
 O         1.967145        -1.331241         0.979777
 H         0.266696         1.428704         0.260233
 H        -0.290986         0.295040        -0.904482
 H        -0.466832        -0.222445         0.818326
 H         2.212385        -2.230318        -1.655524
 H         0.761957        -1.045661        -2.071175
 H         2.301047         0.882153        -1.494786
 H         4.810277         0.540306         0.861454
 H         4.159025        -2.634776         0.712170
 H         5.177355        -1.870097         1.845408
 H         3.144175        -0.369060         2.395783
