19
Iteration:  4049
 C         0.273732         0.194092         0.317906
 C         1.523414        -0.513142        -0.186605
 C         1.576161        -1.083709        -1.655724
 C         2.627242        -0.155763        -1.250062
 O         3.905941        -0.668052        -0.908606
 C         4.214030        -0.473060         0.448772
 C         4.418632        -1.551316         1.471701
 C         3.126069        -0.779147         1.477240
 O         1.970591        -1.393120         0.812545
 H        -0.015071         1.054754        -0.336941
 H        -0.595177        -0.656057         0.353561
 H         0.689817         0.671742         1.231718
 H         1.655945        -2.152874        -1.812891
 H         0.906253        -0.587467        -2.289993
 H         2.473309         0.886138        -1.631114
 H         4.808119         0.503198         0.698582
 H         4.179083        -2.475087         1.093652
 H         5.168525        -1.365210         2.200642
 H         3.035015         0.009006         2.265026
