19
Iteration:  2213charge 0 multiplicity 1
 C         0.487248         0.397730         0.272212
 C         1.485836        -0.634292        -0.291297
 C         1.459022        -1.169452        -1.653808
 C         2.582155        -0.175566        -1.190613
 O         3.898982        -0.658891        -0.820065
 C         4.077007        -0.220542         0.618879
 C         4.508052        -1.501125         1.436257
 C         3.068535        -0.861960         1.452628
 O         2.039380        -1.592099         0.706272
 H         0.929958         1.247603         0.726959
 H        -0.191054         0.682047        -0.585719
 H        -0.230385        -0.095080         0.989464
 H         1.482374        -2.241761        -1.659425
 H         0.825417        -0.659538        -2.407887
 H         2.757389         0.895564        -1.548262
 H         4.508356         0.662043         0.828321
 H         4.432533        -2.495169         0.861434
 H         5.259892        -1.254400         2.280071
 H         2.639336        -0.185633         2.318143
