19
Iteration:   816charge 0 multiplicity 1
 C         0.394627         0.283434         0.232666
 C         1.486289        -0.657633        -0.204745
 C         1.579505        -1.169347        -1.607392
 C         2.558204        -0.212659        -1.136439
 O         3.836649        -0.618593        -0.898123
 C         4.137515        -0.331168         0.485521
 C         4.463798        -1.459321         1.413788
 C         3.083921        -0.825562         1.464017
 O         2.046885        -1.471615         0.773921
 H         0.727745         0.630398         1.280619
 H         0.451482         1.349881        -0.259128
 H        -0.575399        -0.151507         0.226148
 H         1.863672        -2.194369        -1.700835
 H         0.911586        -0.830360        -2.332256
 H         2.428659         0.808639        -1.440678
 H         4.663238         0.739369         0.607183
 H         4.559799        -2.410865         0.946091
 H         5.096245        -1.100711         2.160414
 H         2.728080        -0.369769         2.443148
