19
Iteration:  1033charge 0 multiplicity 1
 C         0.204725         0.213979         0.023458
 C         1.517994        -0.570427        -0.171617
 C         1.682155        -1.265464        -1.508183
 C         2.506669        -0.109610        -1.065756
 O         3.867928        -0.464837        -0.931532
 C         4.274699        -0.438132         0.456510
 C         4.367023        -1.668587         1.273370
 C         3.210527        -0.728440         1.472997
 O         1.978853        -1.335526         0.962330
 H         0.240408         0.713502         1.087181
 H         0.159033         0.924963        -0.823013
 H        -0.575229        -0.456223         0.099054
 H         1.960584        -2.295334        -1.514638
 H         0.821995        -1.066685        -2.126619
 H         2.550420         0.886999        -1.509584
 H         5.168154         0.326882         0.757984
 H         4.134729        -2.672805         0.943873
 H         5.135436        -1.768499         2.012480
 H         3.128807        -0.406098         2.529263
