19
Iteration:   175charge 0 multiplicity 1
 C         0.198491         0.253695         0.157459
 C         1.479440        -0.582419        -0.142122
 C         1.700279        -1.308389        -1.521167
 C         2.573987        -0.156518        -1.146929
 O         3.964612        -0.420517        -0.888467
 C         4.224335        -0.465291         0.427325
 C         4.427902        -1.692004         1.256213
 C         3.186768        -0.808500         1.450445
 O         1.892740        -1.266011         0.961371
 H         0.382232         1.283531         0.384545
 H        -0.551144         0.326539        -0.783074
 H        -0.278940        -0.134559         1.048253
 H         2.069979        -2.364295        -1.483394
 H         0.984297        -1.022713        -2.274663
 H         2.323812         0.606531        -1.873457
 H         4.800423         0.401435         0.720037
 H         4.246591        -2.639576         0.811340
 H         5.223937        -1.647067         1.932839
 H         3.028722        -0.133313         2.299892
