19
Iteration:  3486
 C         0.309596         0.210619         0.120534
 C         1.544910        -0.554997        -0.209175
 C         1.541315        -1.117234        -1.623909
 C         2.563686        -0.113554        -1.167695
 O         3.807725        -0.700766        -0.822744
 C         4.170020        -0.352153         0.588283
 C         4.531415        -1.572558         1.279153
 C         3.173217        -0.877061         1.518187
 O         1.961474        -1.316486         0.880560
 H         0.246368         1.309157        -0.372452
 H        -0.542890        -0.449932        -0.162670
 H         0.490545         0.566416         1.206757
 H         1.983904        -2.154752        -1.805569
 H         0.746241        -0.850725        -2.293911
 H         2.563750         0.877264        -1.736448
 H         4.842900         0.501578         0.677544
 H         4.437719        -2.577756         0.797223
 H         5.319931        -1.521701         2.004067
 H         3.028857        -0.331090         2.419461
