19
Iteration:  2787charge 0 multiplicity 1
 C         0.341840         0.305380         0.383837
 C         1.443169        -0.575252        -0.237088
 C         1.560486        -1.239655        -1.645102
 C         2.580416        -0.233690        -1.231426
 O         3.867714        -0.659104        -0.886257
 C         4.282381        -0.352586         0.464543
 C         4.393750        -1.502451         1.414802
 C         3.113719        -0.733356         1.431887
 O         2.019889        -1.433883         0.818466
 H        -0.039166         0.081207         1.426234
 H         0.594284         1.328117         0.658301
 H        -0.493179         0.282253        -0.376592
 H         1.923137        -2.262329        -1.701968
 H         1.001796        -1.008416        -2.447231
 H         2.633937         0.708344        -1.707431
 H         4.810830         0.641156         0.441138
 H         4.332024        -2.488610         1.108834
 H         4.975724        -1.315334         2.278082
 H         2.909312         0.064104         2.141912
