19
Iteration:  4446
 C         0.353999         0.286969         0.251121
 C         1.542687        -0.480126        -0.192490
 C         1.537411        -1.337795        -1.570588
 C         2.597572        -0.161014        -1.255249
 O         3.901383        -0.430163        -0.835542
 C         4.217322        -0.376000         0.539165
 C         4.302721        -1.701574         1.253321
 C         3.169244        -0.806636         1.515290
 O         2.019627        -1.346945         0.819540
 H        -0.156718         0.796257        -0.602235
 H        -0.414819        -0.354002         0.730372
 H         0.631136         0.999837         0.910436
 H         1.811581        -2.462325        -1.420311
 H         0.726173        -1.423583        -2.320136
 H         2.365984         0.788641        -1.813957
 H         4.856655         0.407311         0.778477
 H         4.206879        -2.649688         0.695454
 H         5.084638        -1.804390         2.053848
 H         2.944983        -0.367351         2.474443
