19
Iteration:  4943charge 0 multiplicity 1
 C         0.192033         0.158280         0.198739
 C         1.457892        -0.490517        -0.217289
 C         1.575251        -1.145458        -1.643219
 C         2.635609        -0.136140        -1.129999
 O         3.983393        -0.603353        -0.919842
 C         4.289590        -0.480415         0.451678
 C         4.314694        -1.747247         1.373327
 C         3.192013        -0.685579         1.493711
 O         1.992319        -1.243476         0.931099
 H        -0.177750         0.900348        -0.474046
 H        -0.706046        -0.504121         0.195937
 H         0.393267         0.553237         1.211015
 H         1.844418        -2.225716        -1.672239
 H         0.868777        -0.938164        -2.379052
 H         2.641249         0.828339        -1.654072
 H         5.209909         0.189021         0.645105
 H         3.901785        -2.639858         0.939780
 H         5.118523        -1.749806         2.044372
 H         2.855197         0.039055         2.359215
