19
Iteration:  4208charge 0 multiplicity 1
 C         0.278910         0.161039         0.138752
 C         1.529722        -0.614329        -0.158103
 C         1.641264        -1.081798        -1.654340
 C         2.569750        -0.092332        -1.160508
 O         3.904501        -0.579595        -0.922086
 C         4.281098        -0.475187         0.455650
 C         4.298710        -1.631774         1.324487
 C         3.160336        -0.727053         1.532084
 O         1.991141        -1.370276         0.958537
 H         0.066287         1.081150        -0.485872
 H        -0.628259        -0.431350         0.258288
 H         0.388112         0.603805         1.171982
 H         1.901338        -2.116904        -1.839331
 H         0.718513        -0.664825        -2.131187
 H         2.458716         0.930368        -1.406587
 H         4.805870         0.404146         0.492625
 H         4.104370        -2.669683         1.028546
 H         5.110830        -1.892692         2.064074
 H         3.070664         0.061729         2.246566
