19
Iteration:  2136charge 0 multiplicity 1
 C         0.225745         0.185370         0.085038
 C         1.476194        -0.631068        -0.151677
 C         1.631677        -1.248029        -1.524661
 C         2.597234        -0.151215        -1.141406
 O         3.935065        -0.380492        -0.842429
 C         4.322943        -0.437398         0.477539
 C         4.271982        -1.732834         1.241752
 C         3.166709        -0.719330         1.485621
 O         1.984077        -1.312992         0.904247
 H         0.391513         0.598633         1.021871
 H         0.151360         1.080508        -0.536576
 H        -0.673523        -0.453387        -0.006013
 H         2.140169        -2.233701        -1.496402
 H         0.889000        -0.953560        -2.232103
 H         2.582880         0.887688        -1.527500
 H         4.993580         0.266626         0.649344
 H         3.956707        -2.520923         0.540976
 H         4.943907        -1.998300         2.134863
 H         3.049824        -0.183638         2.517278
