19
Iteration:  2986charge 0 multiplicity 1
 C         0.277222         0.394645         0.229451
 C         1.415869        -0.539574        -0.266577
 C         1.568137        -1.225062        -1.600214
 C         2.581268        -0.129953        -1.133797
 O         3.936259        -0.691795        -0.809210
 C         4.212840        -0.382762         0.499404
 C         4.474285        -1.493060         1.341604
 C         3.110053        -0.814052         1.444952
 O         2.002864        -1.494338         0.808776
 H         0.581076         1.414437         0.446458
 H        -0.604664         0.230306        -0.504302
 H        -0.078062        -0.052882         1.214885
 H         1.863882        -2.206337        -1.478650
 H         1.004835        -0.865653        -2.399632
 H         2.650472         0.885729        -1.557529
 H         4.660762         0.643065         0.621330
 H         4.506239        -2.390100         0.723483
 H         5.298337        -1.473640         2.114095
 H         2.854682        -0.365494         2.365926
