19
Iteration:  4418charge 0 multiplicity 1
 C         0.220026         0.195259         0.162272
 C         1.464521        -0.638539        -0.150871
 C         1.593637        -1.158522        -1.601998
 C         2.577628        -0.092551        -1.101424
 O         3.934803        -0.506387        -0.930277
 C         4.281087        -0.476281         0.456448
 C         4.358928        -1.690234         1.361372
 C         3.210423        -0.738000         1.423035
 O         1.972251        -1.364826         0.928704
 H         0.018768         0.846714        -0.708995
 H        -0.636561        -0.248109         0.654063
 H         0.482053         1.094012         0.987611
 H         1.788957        -2.209815        -1.816808
 H         0.819048        -0.933394        -2.354781
 H         2.634893         0.979312        -1.560045
 H         4.979727         0.439532         0.601000
 H         4.194445        -2.676231         0.958527
 H         5.123249        -1.548277         2.107216
 H         3.048679        -0.048887         2.291089
