19
Iteration:  4413charge 0 multiplicity 1
 C         0.202296         0.231135         0.170860
 C         1.513318        -0.630570        -0.154193
 C         1.616139        -1.142509        -1.633781
 C         2.538232        -0.056810        -1.121785
 O         3.918498        -0.546541        -0.920175
 C         4.286641        -0.477409         0.420146
 C         4.377578        -1.649998         1.373900
 C         3.185074        -0.775931         1.409127
 O         1.976759        -1.375150         0.962989
 H        -0.027459         0.836895        -0.729931
 H        -0.678943        -0.324889         0.590332
 H         0.367146         0.955015         0.883828
 H         1.933784        -2.249661        -1.657176
 H         0.804735        -0.876535        -2.315640
 H         2.696991         0.991515        -1.281315
 H         4.995811         0.265480         0.535160
 H         4.174895        -2.653282         0.967800
 H         5.112326        -1.435658         2.177928
 H         3.106004        -0.165965         2.290931
