19
Iteration:  4008charge 0 multiplicity 1
 C         0.352470         0.289956         0.110548
 C         1.502827        -0.599730        -0.148110
 C         1.583366        -1.113810        -1.581197
 C         2.587597        -0.114350        -1.098529
 O         3.775081        -0.655062        -0.838832
 C         4.220792        -0.385086         0.429370
 C         4.465012        -1.586050         1.350990
 C         3.114787        -0.810944         1.490840
 O         2.071367        -1.432940         0.858014
 H         0.142601         1.066851        -0.588028
 H        -0.674874        -0.175078         0.053940
 H         0.329345         0.826107         1.056230
 H         1.843308        -2.128376        -1.842116
 H         0.691062        -0.944452        -2.253040
 H         2.636229         0.939026        -1.543541
 H         4.765590         0.556200         0.610387
 H         4.188711        -2.517352         0.901676
 H         5.278254        -1.580167         2.060290
 H         2.777975        -0.229564         2.313117
