19
Iteration:  4302charge 0 multiplicity 1
 C         0.578370         0.420583         0.274984
 C         1.447065        -0.714920        -0.238435
 C         1.573295        -1.250448        -1.634889
 C         2.540879        -0.210611        -1.241277
 O         3.846703        -0.451457        -0.860099
 C         4.112772        -0.327910         0.593350
 C         4.351570        -1.607291         1.314730
 C         3.090629        -0.799692         1.521933
 O         2.043475        -1.493228         0.766620
 H         0.177544         1.082206        -0.461053
 H        -0.269227         0.061923         0.941914
 H         1.130287         1.039950         0.902491
 H         1.984594        -2.258595        -1.715981
 H         0.789495        -1.146532        -2.394287
 H         2.313597         0.773432        -1.632514
 H         4.591836         0.549231         1.067129
 H         4.367574        -2.581031         0.873320
 H         5.064036        -1.726379         2.153113
 H         2.710486        -0.226947         2.388345
