19
Iteration:  1066charge 0 multiplicity 1
 C         0.255270         0.278081         0.159440
 C         1.436525        -0.542934        -0.203765
 C         1.603782        -1.260108        -1.660508
 C         2.545540        -0.113443        -1.196972
 O         3.894464        -0.582282        -0.886393
 C         4.224746        -0.397585         0.527557
 C         4.506739        -1.603054         1.387664
 C         3.172292        -0.815950         1.515700
 O         2.000604        -1.378226         0.859206
 H         0.553596         0.971269         1.054601
 H        -0.325025         0.887534        -0.587677
 H        -0.536893        -0.335947         0.463257
 H         1.928674        -2.298680        -1.693407
 H         0.704161        -0.928189        -2.184664
 H         2.465662         0.919585        -1.617694
 H         4.801431         0.656274         0.689402
 H         4.389438        -2.581355         0.925921
 H         5.207783        -1.451053         2.206888
 H         2.994219        -0.441587         2.543798
