19
Iteration:  2003charge 0 multiplicity 1
 C         0.425227         0.379727         0.280097
 C         1.509734        -0.598340        -0.254946
 C         1.513143        -1.235604        -1.604636
 C         2.630213        -0.261689        -1.206034
 O         3.912181        -0.499278        -0.844840
 C         4.212919        -0.291552         0.561325
 C         4.367418        -1.553985         1.357823
 C         3.071381        -0.822146         1.444897
 O         2.019463        -1.492577         0.777928
 H         0.813097         0.899109         1.100175
 H        -0.093408         1.017942        -0.383559
 H        -0.380875        -0.398267         0.638725
 H         1.645793        -2.323987        -1.475030
 H         0.842872        -1.088097        -2.473610
 H         2.369816         0.678863        -1.680338
 H         4.750775         0.512215         0.806235
 H         4.182961        -2.460569         0.815113
 H         5.083569        -1.496727         2.138173
 H         2.564924        -0.295927         2.356337
