19
Iteration:  3777charge 0 multiplicity 1
 C         0.453321         0.432868         0.302371
 C         1.526411        -0.591342        -0.260593
 C         1.524962        -1.249756        -1.687408
 C         2.590987        -0.233463        -1.207805
 O         3.884085        -0.553737        -0.759090
 C         4.089648        -0.303832         0.551947
 C         4.462484        -1.579975         1.319131
 C         3.092998        -0.861041         1.491129
 O         2.002310        -1.457673         0.746354
 H        -0.125750         0.793616        -0.477236
 H        -0.191166        -0.254667         0.878209
 H         0.872527         1.056114         1.044029
 H         1.596502        -2.382773        -1.675012
 H         0.808050        -0.785026        -2.403447
 H         2.373674         0.725758        -1.718826
 H         4.631299         0.706061         0.839775
 H         4.404858        -2.530055         0.787183
 H         5.188512        -1.664056         2.131313
 H         2.810860        -0.274809         2.407464
