19
Iteration:   971charge 0 multiplicity 1
 C         0.199378         0.269936         0.037083
 C         1.423611        -0.542082        -0.224801
 C         1.615739        -1.385293        -1.490125
 C         2.474251        -0.133606        -1.200519
 O         3.937950        -0.344183        -0.796510
 C         4.260071        -0.405022         0.552772
 C         4.507537        -1.730029         1.217433
 C         3.250754        -0.952120         1.477885
 O         1.951391        -1.212629         0.966706
 H         0.598972         1.099724         0.614660
 H        -0.304575         0.631544        -0.950852
 H        -0.694612        -0.122560         0.673607
 H         2.126581        -2.376571        -1.338451
 H         0.940148        -1.277727        -2.396454
 H         2.319873         0.602677        -1.995625
 H         4.727349         0.487584         0.914286
 H         4.272084        -2.585641         0.524398
 H         5.305702        -1.859121         2.025782
 H         3.143935        -0.566902         2.495214
