19
Iteration:  1833
 C         0.267073         0.304134        -0.045109
 C         1.520699        -0.581006        -0.115280
 C         1.608860        -1.379751        -1.508245
 C         2.477073        -0.196594        -1.180127
 O         3.879661        -0.243496        -0.830846
 C         4.252158        -0.355536         0.544589
 C         4.424760        -1.831168         1.174261
 C         3.263223        -0.875667         1.554036
 O         1.932054        -1.265104         0.971027
 H         0.632859         1.277943         0.598031
 H        -0.023820         0.617389        -1.183306
 H        -0.536373        -0.247028         0.398901
 H         1.941140        -2.410442        -1.314712
 H         0.962578        -1.431596        -2.342928
 H         2.292074         0.818694        -1.498247
 H         5.085402         0.410032         0.906363
 H         4.096166        -2.456325         0.398679
 H         5.061050        -2.247705         1.920763
 H         3.173406        -0.617921         2.511256
