19
Iteration:  4699charge 0 multiplicity 1
 C         0.346202         0.367786         0.182410
 C         1.470162        -0.570319        -0.168619
 C         1.603076        -1.321112        -1.521573
 C         2.563947        -0.191165        -1.152434
 O         3.972158        -0.339178        -0.982257
 C         4.281350        -0.432951         0.483480
 C         4.318723        -1.741014         1.335412
 C         3.131646        -0.824522         1.435477
 O         1.914735        -1.376930         0.907709
 H        -0.023019         0.944685        -0.759517
 H        -0.466244        -0.252490         0.672988
 H         0.633888         0.969237         1.039084
 H         2.235323        -2.296965        -1.414184
 H         0.920857        -1.310792        -2.356600
 H         2.259824         0.799949        -1.572376
 H         5.032548         0.314776         0.756522
 H         4.171037        -2.729863         0.951948
 H         5.003697        -1.560178         2.153523
 H         2.899860        -0.282008         2.305826
