19
Iteration:  2837
 C         0.286292         0.380499         0.011576
 C         1.512986        -0.575245        -0.085906
 C         1.652535        -1.245189        -1.479347
 C         2.526290        -0.171825        -1.133466
 O         3.841866        -0.607421        -0.866062
 C         4.142581        -0.316688         0.448374
 C         4.491860        -1.542165         1.279129
 C         3.184444        -0.855236         1.472417
 O         1.982479        -1.473993         0.921970
 H         0.083534         0.446218         1.078850
 H         0.582247         1.438709        -0.017211
 H        -0.556643         0.190429        -0.610188
 H         1.949027        -2.335832        -1.402816
 H         0.773593        -0.981257        -2.249716
 H         2.432574         0.820919        -1.670688
 H         4.726389         0.523756         0.435244
 H         4.401219        -2.453847         0.624320
 H         5.286187        -1.502724         2.039803
 H         3.006767        -0.368216         2.448493
