19
Iteration:   461
 C         0.195952         0.263598        -0.044406
 C         1.482051        -0.611655        -0.135333
 C         1.597659        -1.262649        -1.471532
 C         2.518071        -0.143188        -1.188911
 O         3.911443        -0.458591        -0.869403
 C         4.227924        -0.428212         0.480231
 C         4.517428        -1.720445         1.224932
 C         3.252916        -0.830063         1.510485
 O         1.901818        -1.243386         1.026399
 H         0.276443         0.627681         1.011849
 H         0.095763         1.075785        -0.621100
 H        -0.683933        -0.454004        -0.054551
 H         2.228907        -2.191819        -1.426774
 H         0.855933        -1.355941        -2.307725
 H         2.406725         0.915024        -1.546968
 H         4.736935         0.572578         0.710079
 H         4.587377        -2.596148         0.549092
 H         5.261454        -1.773437         2.037294
 H         3.154673        -0.217474         2.356513
