19
Iteration:  1176charge 0 multiplicity 1
 C         0.376530         0.322137         0.256952
 C         1.480806        -0.589547        -0.248259
 C         1.630358        -1.232818        -1.586215
 C         2.616357        -0.227080        -1.168744
 O         3.839756        -0.578329        -0.780349
 C         4.121721        -0.298895         0.510181
 C         4.449604        -1.519261         1.258722
 C         3.159023        -0.819726         1.432922
 O         1.953819        -1.457670         0.829731
 H         0.706229         0.721764         1.334631
 H         0.010617         1.068682        -0.543416
 H        -0.419991        -0.358168         0.494189
 H         1.948854        -2.307744        -1.671078
 H         0.903696        -0.967742        -2.392631
 H         2.621621         0.807888        -1.600402
 H         4.614783         0.787185         0.728090
 H         4.226589        -2.509240         0.833686
 H         5.248513        -1.510605         2.015312
 H         2.866629        -0.205971         2.263134
