19
Iteration:   944charge 0 multiplicity 1
 C         0.306676         0.306083         0.010204
 C         1.524368        -0.579791        -0.093656
 C         1.615100        -1.338957        -1.439226
 C         2.515977        -0.177523        -1.116687
 O         4.009674        -0.391998        -0.856596
 C         4.181475        -0.363964         0.498936
 C         4.338637        -1.629259         1.121666
 C         3.142341        -0.880956         1.461315
 O         1.956391        -1.377312         0.960966
 H         0.498067         1.364444         0.388215
 H        -0.250381         0.255401        -0.878839
 H        -0.345949         0.006289         0.767502
 H         2.208565        -2.218375        -1.437745
 H         0.935248        -1.256164        -2.240326
 H         2.233845         0.800566        -1.514228
 H         4.776781         0.529361         0.896295
 H         4.274009        -2.455283         0.460643
 H         5.114376        -1.659694         1.825717
 H         3.045270        -0.508739         2.476427
