19
Iteration:   960charge 0 multiplicity 1
 C         0.231493         0.317296         0.017108
 C         1.470893        -0.565114        -0.197247
 C         1.673725        -1.336238        -1.437814
 C         2.578654        -0.167551        -1.164692
 O         3.852643        -0.338534        -0.864496
 C         4.238131        -0.300723         0.549467
 C         4.487942        -1.750310         1.199821
 C         3.218039        -0.907626         1.484588
 O         1.906171        -1.350059         0.981414
 H         0.414801         1.349810         0.333754
 H        -0.274182         0.505327        -1.031042
 H        -0.451620        -0.257496         0.788856
 H         1.858049        -2.420363        -1.207194
 H         0.863673        -1.199421        -2.223763
 H         2.491243         0.692134        -1.856724
 H         4.897450         0.540374         0.721331
 H         4.337782        -2.605794         0.472615
 H         5.230468        -2.107647         1.998264
 H         3.143300        -0.373423         2.444986
