19
Iteration:  2314charge 0 multiplicity 1
 C         0.216683         0.311301         0.010152
 C         1.488442        -0.587779        -0.184617
 C         1.652571        -1.240449        -1.510358
 C         2.579106        -0.138932        -1.079189
 O         3.866873        -0.574595        -0.850190
 C         4.192171        -0.362770         0.522777
 C         4.557391        -1.622138         1.209996
 C         3.162009        -0.896738         1.459962
 O         1.907424        -1.306447         0.979962
 H         0.075957         0.849971         1.029536
 H         0.329102         1.113294        -0.744046
 H        -0.668863        -0.225098        -0.134152
 H         2.140472        -2.252563        -1.557359
 H         0.817963        -1.031017        -2.153105
 H         2.522785         0.795714        -1.649201
 H         4.802114         0.475591         0.672960
 H         4.428416        -2.499861         0.595566
 H         5.384755        -1.584480         1.917429
 H         3.034323        -0.521866         2.527604
