19
Iteration:  1411charge 0 multiplicity 1
 C         0.406214         0.227512         0.305298
 C         1.450529        -0.606635        -0.257559
 C         1.511298        -1.123657        -1.655183
 C         2.569441        -0.114858        -1.238341
 O         3.850018        -0.684453        -0.889001
 C         4.266949        -0.369026         0.475453
 C         4.456923        -1.469432         1.553300
 C         3.121511        -0.784374         1.504898
 O         1.992750        -1.450711         0.711951
 H         0.756333         0.729516         1.146151
 H        -0.256823         0.882638        -0.339902
 H        -0.479014        -0.477508         0.624190
 H         1.603638        -2.177117        -1.941777
 H         0.684690        -0.870574        -2.332108
 H         2.605829         1.011451        -1.424190
 H         4.935047         0.434897         0.498630
 H         4.667918        -2.463714         1.160581
 H         5.119188        -1.390257         2.410716
 H         2.923941        -0.065394         2.485274
