19
Iteration:  4320
 C         0.545100         0.392228         0.302695
 C         1.539914        -0.580981        -0.247839
 C         1.615141        -1.306625        -1.570449
 C         2.494905        -0.103723        -1.194993
 O         3.858529        -0.447719        -0.922052
 C         4.099923        -0.376358         0.470920
 C         4.348766        -1.587852         1.449179
 C         3.038994        -0.894515         1.482242
 O         2.011612        -1.524489         0.768965
 H         0.360358         1.052010        -0.555266
 H        -0.308407         0.021473         0.773434
 H         1.098460         1.015097         1.142933
 H         2.069807        -2.356755        -1.601594
 H         0.901185        -1.234472        -2.371393
 H         2.327609         0.885570        -1.763468
 H         4.847618         0.562585         0.614806
 H         4.220292        -2.514444         0.865768
 H         5.120287        -1.380230         2.183559
 H         2.682087        -0.433492         2.572068
