19
Iteration:  2349charge 0 multiplicity 1
 C         0.329487         0.296643         0.022859
 C         1.468061        -0.626310        -0.161085
 C         1.691318        -1.353881        -1.492357
 C         2.550006        -0.153347        -1.146344
 O         3.883684        -0.365017        -0.837650
 C         4.198042        -0.412209         0.511639
 C         4.423384        -1.703402         1.192831
 C         3.172828        -0.830148         1.484178
 O         1.897120        -1.282137         0.974367
 H         0.624459         0.984513         0.956911
 H         0.113468         0.886727        -0.847990
 H        -0.603965        -0.230575         0.170583
 H         2.245836        -2.285344        -1.563575
 H         0.729291        -1.327988        -2.094582
 H         2.418110         0.727057        -1.725286
 H         4.899145         0.450715         0.855794
 H         4.107761        -2.441663         0.515307
 H         5.262460        -1.895220         1.831565
 H         3.148849        -0.539920         2.498868
