19
Iteration:  1656
 C         0.521893         0.434362         0.331871
 C         1.549046        -0.624332        -0.169106
 C         1.528066        -1.191344        -1.654424
 C         2.573594        -0.170163        -1.202064
 O         3.962874        -0.573498        -0.909039
 C         4.011095        -0.327617         0.485948
 C         4.422889        -1.444924         1.467664
 C         3.015657        -0.889546         1.453555
 O         2.016043        -1.632534         0.692184
 H         0.769381         1.034282         1.329408
 H         0.261519         1.160403        -0.432915
 H        -0.347422        -0.181720         0.518021
 H         1.901362        -2.266943        -1.496596
 H         0.640264        -0.988383        -2.372088
 H         2.364720         0.865897        -1.437594
 H         4.360481         0.605720         0.920236
 H         4.592874        -2.453730         1.000673
 H         5.114704        -1.099461         2.313496
 H         2.655754        -0.257833         2.271973
