19
Iteration:  3712charge 0 multiplicity 1
 C         0.351215         0.351903         0.063648
 C         1.458188        -0.654155        -0.151238
 C         1.593072        -1.201092        -1.582762
 C         2.514813        -0.062383        -1.133046
 O         3.857610        -0.527075        -0.852886
 C         4.210198        -0.376762         0.546109
 C         4.389473        -1.687417         1.311291
 C         3.190924        -0.819712         1.515977
 O         2.046824        -1.445609         0.823668
 H         0.042733         0.805146        -0.826681
 H        -0.472235        -0.120184         0.621606
 H         0.541239         1.186614         0.731099
 H         2.002950        -2.230112        -1.617821
 H         0.656851        -0.808710        -2.117085
 H         2.495507         1.017627        -1.483993
 H         5.048540         0.450315         0.620872
 H         4.169981        -2.570513         0.726623
 H         5.082017        -1.866605         2.187448
 H         2.907811        -0.336509         2.503668
