19
Iteration:  1457charge 0 multiplicity 1
 C         0.422053         0.309234         0.137256
 C         1.543964        -0.593068        -0.177001
 C         1.551291        -1.219041        -1.545064
 C         2.544445        -0.124516        -1.171633
 O         3.843632        -0.583210        -0.871992
 C         4.192178        -0.249277         0.548135
 C         4.430677        -1.535978         1.291111
 C         3.083406        -0.885459         1.503988
 O         1.993689        -1.473912         0.836436
 H         0.850806         1.047003         0.845600
 H         0.120714         0.806413        -0.720658
 H        -0.507301        -0.149169         0.648223
 H         2.086264        -2.143099        -1.663340
 H         0.783835        -1.214790        -2.280300
 H         2.388669         0.837686        -1.725226
 H         4.690407         0.603586         0.748686
 H         4.291173        -2.476706         0.817823
 H         5.200985        -1.724127         2.021010
 H         2.918620        -0.524836         2.554175
