19
Iteration:  4723
 C         0.278149         0.202329         0.120049
 C         1.541701        -0.533009        -0.204415
 C         1.612089        -1.191077        -1.586058
 C         2.575354        -0.077338        -1.194197
 O         3.864551        -0.543732        -0.906899
 C         4.174249        -0.458609         0.497256
 C         4.376685        -1.744743         1.357379
 C         3.201481        -0.762185         1.520182
 O         1.997666        -1.297124         0.937753
 H        -0.038093         0.734772        -0.792407
 H        -0.480083        -0.440841         0.560451
 H         0.644575         0.796925         1.056082
 H         1.954130        -2.270119        -1.723431
 H         0.747079        -0.937253        -2.150648
 H         2.491481         0.919871        -1.748909
 H         4.969208         0.422511         0.718501
 H         3.972777        -2.688336         0.885047
 H         5.268693        -1.711642         1.990997
 H         2.998201        -0.020847         2.308896
