19
Iteration:  1574charge 0 multiplicity 1
 C         0.178730         0.189042         0.066343
 C         1.503219        -0.530577        -0.184914
 C         1.584915        -1.152072        -1.499298
 C         2.583129        -0.064744        -1.066634
 O         3.935417        -0.524449        -0.938180
 C         4.296631        -0.488121         0.519543
 C         4.432412        -1.670919         1.282082
 C         3.172109        -0.888342         1.452540
 O         1.946565        -1.265226         0.960909
 H         0.057687         0.992794         0.685685
 H        -0.192135         0.393420        -1.011678
 H        -0.530550        -0.563798         0.461682
 H         2.110240        -2.052808        -1.626620
 H         0.929103        -1.149542        -2.325243
 H         2.614154         0.943589        -1.551075
 H         4.824501         0.450431         0.828673
 H         4.426818        -2.573685         0.715489
 H         5.108813        -1.818211         2.088334
 H         2.967646        -0.139815         2.259679
