19
Iteration:  4612charge 0 multiplicity 1
 C         0.311758         0.377704         0.186395
 C         1.444644        -0.611712        -0.243033
 C         1.602866        -1.153210        -1.599105
 C         2.518551        -0.130160        -1.066161
 O         3.812847        -0.664735        -0.915135
 C         4.303149        -0.387604         0.455606
 C         4.465522        -1.555365         1.387477
 C         3.139538        -0.850811         1.487108
 O         2.011483        -1.439355         0.851925
 H        -0.028895         0.879961        -0.731404
 H        -0.559587        -0.167905         0.499810
 H         0.626307         1.120340         0.903529
 H         1.925042        -2.163837        -1.476317
 H         0.840543        -0.914515        -2.445453
 H         2.658742         0.916834        -1.411133
 H         4.798410         0.600438         0.594492
 H         4.397399        -2.542970         1.015263
 H         5.213531        -1.505151         2.156379
 H         2.944247        -0.260191         2.323630
