19
Iteration:  3106
 C         0.308314         0.299655         0.095050
 C         1.470343        -0.606437        -0.168872
 C         1.514176        -1.178340        -1.562508
 C         2.521506        -0.224952        -1.100777
 O         3.864654        -0.604590        -0.853252
 C         4.237251        -0.371871         0.443684
 C         4.505867        -1.517239         1.319150
 C         3.216315        -0.816850         1.468131
 O         2.028105        -1.386387         0.910315
 H        -0.063982         0.398601         1.091147
 H         0.372166         1.246958        -0.572917
 H        -0.598218        -0.184610        -0.321757
 H         1.899564        -2.173915        -1.730775
 H         0.778782        -0.757144        -2.113134
 H         2.433138         0.817160        -1.401268
 H         4.695968         0.615112         0.665163
 H         4.334150        -2.499511         0.846073
 H         5.031154        -1.871968         2.174300
 H         2.992858        -0.173437         2.246377
