19
Iteration:  2138
 C         0.232060         0.181091         0.087684
 C         1.489477        -0.649139        -0.163243
 C         1.631517        -1.251464        -1.519545
 C         2.594031        -0.146985        -1.143655
 O         3.938870        -0.384801        -0.831291
 C         4.303338        -0.426732         0.463642
 C         4.268806        -1.732706         1.234621
 C         3.165020        -0.716904         1.498403
 O         1.976758        -1.319563         0.901122
 H         0.435994         0.629740         1.062595
 H         0.148793         1.123841        -0.560039
 H        -0.664935        -0.354204         0.010272
 H         2.089378        -2.241267        -1.511486
 H         0.894440        -0.933093        -2.232294
 H         2.599506         0.911283        -1.498331
 H         5.036748         0.333391         0.642900
 H         3.995506        -2.560959         0.511261
 H         4.909334        -1.924314         2.204363
 H         3.134581        -0.222420         2.479699
