19
Iteration:  1129
 C         0.543332         0.393575         0.338859
 C         1.522434        -0.645043        -0.271343
 C         1.514733        -1.212434        -1.724522
 C         2.461243        -0.216172        -1.235801
 O         3.833117        -0.528917        -0.819234
 C         4.112793        -0.386499         0.541780
 C         4.493328        -1.480501         1.510993
 C         3.042847        -0.806040         1.417098
 O         2.052271        -1.563899         0.720488
 H         1.045724         1.199403         1.031213
 H         0.194460         0.696043        -0.598263
 H        -0.277506        -0.074985         0.904727
 H         1.600976        -2.278575        -1.638181
 H         0.781778        -0.906810        -2.454675
 H         2.260070         0.854684        -1.704958
 H         4.758747         0.553825         0.758800
 H         4.854167        -2.488060         1.399490
 H         5.085422        -0.986254         2.262420
 H         2.678526        -0.285220         2.404371
