19
Iteration:  3998charge 0 multiplicity 1
 C         0.297905         0.371616         0.127369
 C         1.536372        -0.602321        -0.182381
 C         1.509104        -1.184452        -1.612787
 C         2.572577        -0.089470        -1.191007
 O         3.867229        -0.622530        -0.848921
 C         4.174635        -0.337478         0.541664
 C         4.429633        -1.609180         1.302665
 C         3.170343        -0.818798         1.507739
 O         2.040120        -1.499676         0.926425
 H         0.334317         1.019799        -0.739303
 H        -0.448095        -0.384384         0.127076
 H         0.409987         0.916962         1.053304
 H         1.933530        -2.170472        -1.804990
 H         0.561181        -0.736678        -2.186523
 H         2.532671         0.877339        -1.781989
 H         4.707733         0.587619         0.672910
 H         4.338710        -2.581318         0.755805
 H         5.186162        -1.580719         2.103667
 H         3.079246        -0.187023         2.365883
