19
Iteration:  4051charge 0 multiplicity 1
 C         0.295443         0.186271         0.314414
 C         1.520102        -0.509569        -0.182142
 C         1.563346        -1.094066        -1.637463
 C         2.641143        -0.152086        -1.246360
 O         3.915533        -0.669463        -0.916004
 C         4.199204        -0.456691         0.456696
 C         4.416665        -1.563439         1.465294
 C         3.117567        -0.761422         1.498579
 O         1.973298        -1.393862         0.799621
 H        -0.047212         1.008640        -0.332176
 H        -0.555797        -0.631003         0.360665
 H         0.656293         0.683465         1.242443
 H         1.575372        -2.123600        -1.868628
 H         0.894076        -0.600113        -2.383282
 H         2.452687         0.885929        -1.665632
 H         4.789300         0.460864         0.702969
 H         4.191382        -2.524111         1.066281
 H         5.159035        -1.353220         2.180074
 H         3.064720        -0.016097         2.246473
