19
Iteration:  1674charge 0 multiplicity 1
 C         0.548832         0.335555         0.323373
 C         1.471789        -0.586917        -0.267321
 C         1.497519        -1.205675        -1.632429
 C         2.592634        -0.167783        -1.200466
 O         3.823521        -0.637468        -0.772177
 C         4.126637        -0.262981         0.563559
 C         4.454762        -1.416208         1.433860
 C         3.038550        -0.917165         1.411399
 O         2.032158        -1.550557         0.663603
 H         1.153270         0.792233         1.020463
 H         0.289953         1.143112        -0.323122
 H        -0.486213        -0.019903         0.667946
 H         1.809454        -2.231153        -1.775104
 H         0.811553        -0.887439        -2.382593
 H         2.559553         0.829010        -1.713202
 H         4.524250         0.738946         0.645398
 H         4.745257        -2.358137         0.951244
 H         4.980334        -1.287139         2.373298
 H         2.589722        -0.496439         2.402305
