19
Iteration:  1025charge 0 multiplicity 1
 C         0.163607         0.214699         0.055648
 C         1.549303        -0.608319        -0.102166
 C         1.681240        -1.263948        -1.510789
 C         2.631479        -0.097745        -1.104351
 O         3.934844        -0.478007        -0.958166
 C         4.198283        -0.403101         0.451703
 C         4.364429        -1.723978         1.208497
 C         3.142858        -0.708331         1.516834
 O         1.981964        -1.324556         1.005452
 H         0.157293         0.864475         0.907494
 H         0.037814         1.078739        -0.749723
 H        -0.680446        -0.521678        -0.021521
 H         2.195845        -2.270596        -1.435840
 H         0.702328        -1.292533        -2.083085
 H         2.405376         0.902118        -1.444125
 H         5.027264         0.296083         0.626542
 H         3.887226        -2.518824         0.591113
 H         5.236591        -1.779483         1.904895
 H         3.031854        -0.250209         2.486256
