19
Iteration:  2066charge 0 multiplicity 1
 C         0.214016         0.254699         0.004950
 C         1.498173        -0.656447        -0.186467
 C         1.691211        -1.189986        -1.567401
 C         2.599689        -0.166344        -1.105254
 O         3.896088        -0.501108        -0.830176
 C         4.209704        -0.337120         0.557202
 C         4.390539        -1.733681         1.131572
 C         3.151603        -0.879172         1.504290
 O         1.957600        -1.251382         1.053731
 H         0.477709         1.280120         0.440920
 H        -0.278286         0.549680        -0.924316
 H        -0.578593        -0.282204         0.573482
 H         2.256371        -2.114394        -1.586586
 H         0.882935        -0.942844        -2.275301
 H         2.509905         0.832081        -1.534082
 H         4.836802         0.609328         0.830296
 H         4.052317        -2.415554         0.373202
 H         5.228758        -1.957964         1.734396
 H         3.332316        -0.446890         2.454992
