19
Iteration:  1093
 C         0.453826         0.279499         0.308765
 C         1.517857        -0.570964        -0.156593
 C         1.560929        -1.196787        -1.605882
 C         2.646870        -0.150832        -1.189260
 O         3.923493        -0.700847        -0.830679
 C         4.091232        -0.265651         0.531761
 C         4.421604        -1.482490         1.335949
 C         3.037173        -0.794637         1.351161
 O         1.971197        -1.502221         0.788998
 H         0.738606         1.115944         0.823862
 H        -0.066345         0.685512        -0.549729
 H        -0.419033        -0.264675         0.820119
 H         1.965235        -2.214736        -1.601092
 H         0.703841        -0.952723        -2.228447
 H         2.667028         0.885170        -1.470387
 H         4.461517         0.651194         0.639854
 H         4.463670        -2.294604         0.611846
 H         5.074256        -1.421597         2.207271
 H         2.783809        -0.196043         2.219686
