19
Iteration:  1273charge 0 multiplicity 1
 C         0.270417         0.179803         0.169560
 C         1.469225        -0.589571        -0.245708
 C         1.683176        -1.295210        -1.552705
 C         2.539591        -0.160816        -1.278430
 O         3.909415        -0.343462        -0.872184
 C         4.182325        -0.434986         0.578000
 C         4.486347        -1.771163         1.230998
 C         3.201453        -0.881752         1.496508
 O         1.879617        -1.155067         0.977841
 H         0.715157         0.954565         0.908576
 H        -0.184614         0.530748        -0.688415
 H        -0.543645        -0.327064         0.622551
 H         2.223394        -2.229137        -1.342085
 H         0.937697        -1.433415        -2.372470
 H         2.402750         0.921634        -1.625127
 H         4.884643         0.444024         0.804468
 H         4.125491        -2.679924         0.731801
 H         5.365714        -1.844835         1.864961
 H         2.895288        -0.329339         2.347224
