19
Iteration:  4833
 C         0.547888         0.514898         0.357369
 C         1.445576        -0.637717        -0.235436
 C         1.601308        -1.315089        -1.545728
 C         2.593742        -0.260112        -1.295293
 O         3.917500        -0.504930        -0.884131
 C         4.105923        -0.289460         0.532865
 C         4.314620        -1.545171         1.354653
 C         3.006605        -0.879937         1.461401
 O         1.995142        -1.517334         0.755406
 H         0.214436         1.271434        -0.355261
 H        -0.258492        -0.049903         0.857371
 H         1.182392         1.189182         1.058179
 H         1.915764        -2.327187        -1.522026
 H         0.967292        -1.108481        -2.446093
 H         2.503470         0.756646        -1.789163
 H         4.750392         0.713006         0.653477
 H         4.459744        -2.523618         0.882359
 H         4.884644        -1.467804         2.322796
 H         2.824395        -0.580433         2.550381
