19
Iteration:   410
 C         0.294893         0.239980         0.166133
 C         1.528257        -0.563951        -0.243512
 C         1.608215        -1.413518        -1.563531
 C         2.525169        -0.116669        -1.175922
 O         3.890082        -0.393288        -0.860660
 C         4.238139        -0.398264         0.493930
 C         4.403208        -1.707744         1.260292
 C         3.225607        -0.783093         1.504231
 O         1.915807        -1.271814         0.946590
 H         0.648457         1.195280         0.702655
 H        -0.067491         0.730829        -0.822932
 H        -0.397616        -0.396794         0.714197
 H         1.917154        -2.426345        -1.484594
 H         0.877832        -1.425618        -2.357140
 H         2.441480         0.785836        -1.736482
 H         4.891291         0.488398         0.788683
 H         4.160378        -2.642361         0.822791
 H         5.217760        -1.793047         1.964224
 H         2.972817        -0.372435         2.456066
