19
Iteration:  2090
 C         0.189633         0.141081         0.053461
 C         1.521413        -0.544007        -0.194867
 C         1.675785        -1.246634        -1.526379
 C         2.515872        -0.007734        -1.136497
 O         3.922240        -0.460548        -0.871239
 C         4.386293        -0.435465         0.519831
 C         4.393645        -1.797669         1.243946
 C         3.164093        -0.906782         1.463837
 O         1.862421        -1.154142         0.999334
 H         0.194169         0.942750         0.745937
 H        -0.195902         0.550384        -0.823352
 H        -0.545313        -0.696969         0.298264
 H         2.230897        -2.172999        -1.505428
 H         0.894122        -0.989403        -2.280014
 H         2.422568         0.881756        -1.737604
 H         5.082900         0.281391         0.779529
 H         4.280988        -2.672955         0.659643
 H         5.109526        -1.746461         1.993240
 H         3.248074        -0.391040         2.465867
