19
Iteration:  4068charge 0 multiplicity 1
 C         0.354448         0.253021         0.308563
 C         1.553330        -0.554254        -0.256846
 C         1.430630        -1.132641        -1.607283
 C         2.630840        -0.170695        -1.204256
 O         3.932857        -0.642456        -0.858360
 C         4.188891        -0.366586         0.514439
 C         4.326701        -1.594001         1.377008
 C         3.074489        -0.770825         1.440627
 O         2.093096        -1.394065         0.787643
 H        -0.107217         0.836086        -0.506973
 H        -0.233092        -0.593549         0.519520
 H         0.612835         0.901726         1.187504
 H         1.860632        -2.181089        -1.528610
 H         0.643141        -0.673913        -2.158591
 H         2.767184         0.746862        -1.723926
 H         4.836493         0.546480         0.662283
 H         4.271494        -2.590376         0.900558
 H         5.051619        -1.520410         2.240806
 H         2.613595        -0.285558         2.384791
