19
Iteration:  3710
 C         0.339308         0.349350         0.072829
 C         1.466818        -0.649152        -0.172484
 C         1.582668        -1.210807        -1.599638
 C         2.514183        -0.070197        -1.135004
 O         3.854249        -0.520414        -0.858464
 C         4.213670        -0.377691         0.557510
 C         4.383974        -1.690834         1.329091
 C         3.212084        -0.808782         1.492562
 O         2.045824        -1.428822         0.831664
 H         0.064125         0.765708        -0.880780
 H        -0.525648        -0.144035         0.613389
 H         0.560757         1.110058         0.820238
 H         1.986694        -2.162513        -1.647722
 H         0.655193        -0.811213        -2.024443
 H         2.504200         0.977675        -1.420352
 H         5.071363         0.447655         0.679212
 H         4.158849        -2.615859         0.729428
 H         5.086799        -1.957158         2.233204
 H         2.924822        -0.354211         2.504439
