19
Iteration:  3782
 C         0.463657         0.393670         0.295809
 C         1.492601        -0.596962        -0.236621
 C         1.532951        -1.220201        -1.638899
 C         2.591518        -0.226655        -1.220534
 O         3.868673        -0.555882        -0.815675
 C         4.113144        -0.309735         0.544422
 C         4.412980        -1.576600         1.343613
 C         3.080056        -0.837487         1.527619
 O         2.045486        -1.492914         0.730055
 H        -0.021227         1.031431        -0.570530
 H        -0.229353        -0.273119         0.824811
 H         0.793068         1.193094         1.059304
 H         1.828512        -2.309561        -1.525379
 H         0.874213        -0.683996        -2.310193
 H         2.456956         0.725805        -1.771448
 H         4.530996         0.591315         0.799968
 H         4.403423        -2.487371         0.736952
 H         5.183519        -1.730324         2.116543
 H         2.750862        -0.223469         2.339643
