19
Iteration:   514
 C         0.279586         0.285430         0.199056
 C         1.471489        -0.667122        -0.161536
 C         1.605335        -1.243060        -1.534345
 C         2.601412        -0.077259        -1.179069
 O         3.924637        -0.589664        -0.888873
 C         4.217301        -0.351095         0.469907
 C         4.408165        -1.548417         1.321239
 C         3.101787        -0.828046         1.480247
 O         2.021897        -1.381801         0.863390
 H         0.606649         0.978945         0.978955
 H        -0.016829         0.871045        -0.738148
 H        -0.568972        -0.394120         0.550050
 H         1.961266        -2.278584        -1.571576
 H         0.809533        -0.853964        -2.158994
 H         2.486884         0.797719        -1.871149
 H         4.747010         0.543608         0.624660
 H         4.172356        -2.514490         0.845845
 H         5.180638        -1.715356         2.105499
 H         2.700375        -0.165974         2.217195
