19
Iteration:   597charge 0 multiplicity 1
 C         0.417033         0.319306         0.320589
 C         1.502479        -0.626840        -0.238235
 C         1.529325        -1.162591        -1.579234
 C         2.626372        -0.194960        -1.239091
 O         3.881626        -0.649267        -0.840509
 C         4.109115        -0.279628         0.496249
 C         4.484381        -1.499998         1.412017
 C         3.015422        -0.848162         1.405218
 O         2.024980        -1.504147         0.791213
 H         0.927617         0.977468         1.038408
 H        -0.000407         1.066094        -0.443399
 H        -0.420619        -0.048404         0.805422
 H         1.868329        -2.228705        -1.675950
 H         0.912436        -0.993678        -2.485179
 H         2.593540         0.787911        -1.699976
 H         4.373045         0.863741         0.725405
 H         4.629694        -2.407538         0.786036
 H         5.236670        -1.094778         2.101882
 H         2.603688        -0.394023         2.422008
