19
Iteration:  4793
 C         0.412972         0.320476         0.189356
 C         1.526557        -0.581682        -0.211251
 C         1.530926        -1.140196        -1.623959
 C         2.585012        -0.153790        -1.221089
 O         3.854668        -0.635751        -0.907600
 C         4.188191        -0.344182         0.486677
 C         4.397712        -1.586812         1.421159
 C         3.122054        -0.873268         1.507076
 O         2.019704        -1.429419         0.861085
 H         0.063048         0.988490        -0.614279
 H        -0.567066        -0.117110         0.536419
 H         0.588985         0.883305         1.146394
 H         1.843912        -2.206157        -1.734966
 H         0.708729        -0.776826        -2.173148
 H         2.529098         0.772104        -1.710890
 H         4.812317         0.511451         0.760044
 H         4.452154        -2.589318         1.086981
 H         5.036618        -1.270720         2.216849
 H         2.822932        -0.274500         2.369133
