19
Iteration:  1141charge 0 multiplicity 1
 C         0.532581         0.366452         0.259954
 C         1.482858        -0.669945        -0.231080
 C         1.468532        -1.246861        -1.610237
 C         2.555327        -0.181692        -1.225182
 O         3.870853        -0.511996        -0.876938
 C         4.119530        -0.335876         0.504347
 C         4.469709        -1.482093         1.535272
 C         3.066927        -0.865680         1.425261
 O         2.045465        -1.557445         0.705807
 H         1.087923         1.075564         1.034593
 H         0.035437         1.123300        -0.326456
 H        -0.229171        -0.142708         0.829979
 H         1.846322        -2.287084        -1.714435
 H         0.641065        -0.910270        -2.243363
 H         2.462276         0.905901        -1.649407
 H         4.441340         0.752626         0.779624
 H         4.447913        -2.526132         1.219145
 H         5.060947        -1.179691         2.396305
 H         2.640682        -0.152806         2.219534
