19
Iteration:  1362charge 0 multiplicity 1
 C         0.356312         0.274217         0.242572
 C         1.475480        -0.620243        -0.247697
 C         1.541583        -1.210407        -1.612203
 C         2.583841        -0.135663        -1.093800
 O         3.927526        -0.614529        -0.885241
 C         4.199140        -0.355032         0.490384
 C         4.460379        -1.526455         1.348860
 C         3.070109        -0.809643         1.394413
 O         1.970842        -1.417949         0.861783
 H         0.694612         0.740635         1.256265
 H        -0.070048         1.099004        -0.385008
 H        -0.470934        -0.285924         0.545483
 H         2.016683        -2.180072        -1.761356
 H         0.765698        -1.108321        -2.354105
 H         2.612279         0.857585        -1.455333
 H         4.685357         0.684008         0.750351
 H         4.520115        -2.523555         0.908323
 H         5.206989        -1.404193         2.144009
 H         2.861644        -0.194084         2.171094
