19
Iteration:  3164charge 0 multiplicity 1
 C         0.228636         0.229258         0.253818
 C         1.465297        -0.518404        -0.234585
 C         1.569320        -1.251502        -1.501369
 C         2.560147        -0.214976        -1.185498
 O         3.970225        -0.472802        -0.890140
 C         4.222956        -0.378420         0.441744
 C         4.392853        -1.686446         1.333824
 C         3.165775        -0.793091         1.449327
 O         2.013278        -1.328281         0.880551
 H         0.401832         0.756736         1.167061
 H         0.039185         1.101488        -0.472103
 H        -0.525799        -0.543612         0.166101
 H         1.884703        -2.288426        -1.293500
 H         0.755567        -1.033065        -2.321500
 H         2.621508         0.637742        -1.905863
 H         4.927716         0.316398         0.717634
 H         4.222383        -2.483292         0.663200
 H         5.110169        -1.598800         2.138234
 H         3.009217        -0.108208         2.326430
