19
Iteration:  3830charge 0 multiplicity 1
 C         0.277026         0.274378         0.223820
 C         1.464511        -0.624974        -0.196344
 C         1.559658        -1.099966        -1.724632
 C         2.562006        -0.120857        -1.180633
 O         3.890418        -0.618018        -0.896823
 C         4.213580        -0.453111         0.454650
 C         4.488522        -1.560425         1.467748
 C         3.142493        -0.807709         1.453291
 O         1.994097        -1.413677         0.893766
 H         0.445093         1.172123        -0.361452
 H        -0.781575        -0.239608         0.278226
 H         0.540484         0.592478         1.274490
 H         1.848891        -2.102106        -1.760335
 H         0.954330        -0.570637        -2.410711
 H         2.359657         0.820549        -1.637739
 H         4.857980         0.466363         0.719751
 H         4.373293        -2.611515         1.105786
 H         5.302649        -1.576018         2.224582
 H         2.891809        -0.166523         2.356771
