19
Iteration:  2551charge 0 multiplicity 1
 C         0.378359         0.391088         0.137399
 C         1.467681        -0.582976        -0.189257
 C         1.609167        -1.216933        -1.507135
 C         2.567372        -0.137923        -1.225759
 O         3.793551        -0.638473        -0.839076
 C         4.150953        -0.313798         0.465257
 C         4.486068        -1.502638         1.359166
 C         3.137596        -0.900916         1.436618
 O         2.027874        -1.489518         0.853399
 H         0.197920         0.139990         1.138138
 H         0.787365         1.414886         0.177967
 H        -0.537303         0.159990        -0.396286
 H         2.034301        -2.185352        -1.439910
 H         0.831169        -1.195656        -2.232591
 H         2.445945         0.829433        -1.662374
 H         4.535274         0.676276         0.696839
 H         4.436197        -2.520919         1.052775
 H         5.092486        -1.288605         2.180039
 H         2.905432        -0.248431         2.256403
