19
Iteration:  3039
 C         0.501013         0.350615         0.300610
 C         1.460965        -0.740881        -0.202106
 C         1.538905        -1.212409        -1.596883
 C         2.586165        -0.249938        -1.266230
 O         3.909299        -0.532261        -0.886702
 C         4.162610        -0.309767         0.537885
 C         4.377478        -1.482033         1.344722
 C         3.052684        -0.768461         1.487033
 O         1.994209        -1.490484         0.773582
 H         1.088098         1.164708         0.842979
 H        -0.081400         0.779877        -0.553395
 H         0.008285        -0.177030         1.188516
 H         1.841799        -2.148730        -1.463409
 H         0.841599        -0.907896        -2.279817
 H         2.574648         0.767210        -1.514354
 H         4.849373         0.639651         0.541640
 H         4.105847        -2.447440         0.928518
 H         5.000645        -1.583827         2.287074
 H         2.595604        -0.202653         2.282073
