19
Iteration:  1478charge 0 multiplicity 1
 C         0.324983         0.397738         0.142673
 C         1.459938        -0.611953        -0.253681
 C         1.575854        -1.332058        -1.554900
 C         2.555917        -0.199354        -1.202718
 O         3.860856        -0.417453        -0.796401
 C         4.157321        -0.328769         0.577848
 C         4.505206        -1.686493         1.271804
 C         3.181912        -0.918331         1.484441
 O         1.994900        -1.347337         0.854335
 H         0.532054         1.108320         0.945505
 H         0.041571         0.918270        -0.788940
 H        -0.593235        -0.227161         0.559451
 H         1.778571        -2.390562        -1.552698
 H         0.824328        -1.149553        -2.298665
 H         2.358216         0.792084        -1.721855
 H         4.671915         0.509641         0.823786
 H         4.672682        -2.546346         0.653582
 H         5.262903        -1.734377         2.059265
 H         3.064577        -0.317272         2.528284
