19
Iteration:  4175charge 0 multiplicity 1
 C         0.232825         0.282913         0.191214
 C         1.479034        -0.491136        -0.209256
 C         1.647041        -1.237174        -1.516078
 C         2.541901        -0.108315        -1.200762
 O         3.911911        -0.502791        -0.833237
 C         4.277567        -0.460260         0.465330
 C         4.412751        -1.729514         1.335295
 C         3.139370        -0.840624         1.457603
 O         1.996292        -1.320246         0.794615
 H         0.007154         1.178728        -0.444377
 H        -0.640662        -0.306634         0.307582
 H         0.534578         0.620592         1.214747
 H         1.972532        -2.310570        -1.460784
 H         0.799511        -1.274919        -2.196057
 H         2.427773         0.847241        -1.613640
 H         4.712045         0.386401         0.847690
 H         4.373360        -2.707855         0.817932
 H         4.999174        -1.499199         2.292030
 H         2.960730        -0.179484         2.285542
