19
Iteration:  3420
 C         0.387320         0.264864         0.169360
 C         1.484992        -0.591558        -0.188207
 C         1.661947        -1.329631        -1.584269
 C         2.482408        -0.130722        -1.235241
 O         3.882969        -0.339057        -0.885920
 C         4.136241        -0.371374         0.512736
 C         4.321004        -1.788377         1.285600
 C         3.209888        -0.825901         1.510094
 O         2.024117        -1.332741         0.934237
 H        -0.065011         0.820821        -0.766766
 H        -0.585004         0.003319         0.596164
 H         0.858033         1.179700         0.758031
 H         2.293118        -2.221287        -1.563678
 H         0.868282        -1.191131        -2.272185
 H         2.383948         0.813039        -1.809723
 H         4.881573         0.266316         0.953733
 H         4.084222        -2.777893         0.821679
 H         5.051035        -1.933568         2.138552
 H         2.950071        -0.358460         2.449682
