19
Iteration:   889
 C         0.266029         0.256580         0.247918
 C         1.434191        -0.624940        -0.272866
 C         1.586219        -1.209613        -1.535365
 C         2.581243        -0.134320        -1.223633
 O         3.921800        -0.592704        -0.896915
 C         4.177662        -0.365208         0.521451
 C         4.457613        -1.556840         1.437539
 C         3.163740        -0.785233         1.497933
 O         2.025858        -1.402314         0.744932
 H         0.626760         0.944333         1.127473
 H        -0.143376         0.934115        -0.437208
 H        -0.496728        -0.426142         0.626384
 H         1.791021        -2.272441        -1.586039
 H         0.807608        -0.910042        -2.223753
 H         2.487623         0.880476        -1.614963
 H         4.749853         0.578096         0.655037
 H         4.360320        -2.511445         0.917798
 H         5.174711        -1.535793         2.248959
 H         2.922285        -0.157586         2.353390
