19
Iteration:   620
 C         0.390005         0.331554         0.198110
 C         1.509944        -0.591978        -0.216842
 C         1.550333        -1.248649        -1.632246
 C         2.490288        -0.188986        -1.143466
 O         3.827417        -0.539243        -0.847439
 C         4.257838        -0.346811         0.474817
 C         4.518644        -1.530149         1.417206
 C         3.104372        -0.901376         1.517521
 O         2.012647        -1.454002         0.790567
 H         0.708042         0.728944         1.121490
 H         0.237298         1.234888        -0.572796
 H        -0.540496        -0.073592         0.352914
 H         1.928016        -2.265237        -1.793068
 H         0.736304        -1.017585        -2.335830
 H         2.269855         0.754475        -1.640253
 H         4.605448         0.749672         0.545755
 H         4.370029        -2.480806         0.903907
 H         5.129400        -1.322869         2.314780
 H         2.700297        -0.135364         2.350131
