19
Iteration:  4613charge 0 multiplicity 1
 C         0.316501         0.380394         0.181744
 C         1.436538        -0.613336        -0.231375
 C         1.606378        -1.158450        -1.608118
 C         2.525720        -0.135020        -1.059923
 O         3.817766        -0.659086        -0.917041
 C         4.296165        -0.390320         0.455844
 C         4.463809        -1.547530         1.382549
 C         3.151124        -0.859843         1.484312
 O         2.000842        -1.439911         0.855146
 H        -0.047652         0.890550        -0.689149
 H        -0.546797        -0.140261         0.468924
 H         0.603445         1.178145         0.891322
 H         1.898011        -2.187255        -1.484334
 H         0.859266        -0.937676        -2.423207
 H         2.629035         0.929296        -1.409745
 H         4.835323         0.622541         0.599747
 H         4.407729        -2.530934         1.000728
 H         5.219367        -1.488036         2.154684
 H         2.927213        -0.299900         2.337736
