19
Iteration:  4451
 C         0.353264         0.299689         0.272413
 C         1.517601        -0.470237        -0.212083
 C         1.566348        -1.362911        -1.562654
 C         2.631233        -0.151968        -1.241577
 O         3.880656        -0.435327        -0.847321
 C         4.195554        -0.347623         0.525529
 C         4.307514        -1.730882         1.240560
 C         3.163311        -0.832222         1.528661
 O         2.001929        -1.355857         0.810702
 H        -0.088584         0.740889        -0.629324
 H        -0.458857        -0.289377         0.690715
 H         0.831483         1.196924         1.008641
 H         1.924676        -2.303505        -1.269542
 H         0.733124        -1.401904        -2.288910
 H         2.318147         0.629454        -1.953530
 H         4.834640         0.559224         0.890005
 H         4.388051        -2.661956         0.695592
 H         5.052645        -1.677754         1.998507
 H         2.965871        -0.399811         2.549014
