19
Iteration:  4581
 C         0.331985         0.183154         0.319555
 C         1.569536        -0.543199        -0.237957
 C         1.535818        -1.094051        -1.655177
 C         2.627941        -0.149434        -1.216022
 O         3.844875        -0.714214        -0.921780
 C         4.241732        -0.413535         0.428996
 C         4.311634        -1.587848         1.449782
 C         3.088284        -0.709340         1.512809
 O         2.072148        -1.351686         0.820870
 H        -0.019435         0.806466        -0.447835
 H        -0.295092        -0.627734         0.519316
 H         0.455433         0.658037         1.313188
 H         1.661081        -2.132628        -1.737226
 H         0.675142        -0.555056        -2.157318
 H         2.733707         0.912694        -1.635230
 H         4.998171         0.475474         0.578025
 H         4.089144        -2.590960         1.187619
 H         5.120627        -1.440822         2.145728
 H         2.868162        -0.111777         2.336066
