19
Iteration:  3684charge 0 multiplicity 1
 C         0.286449         0.211045         0.202723
 C         1.476631        -0.548378        -0.222112
 C         1.596170        -1.183204        -1.629284
 C         2.563084        -0.096898        -1.181850
 O         3.958030        -0.499323        -0.884199
 C         4.244445        -0.506309         0.476585
 C         4.371072        -1.692121         1.319722
 C         3.177842        -0.803683         1.495175
 O         1.924588        -1.283492         0.932286
 H        -0.016482         1.022882        -0.595624
 H        -0.553991        -0.506239         0.259578
 H         0.334731         0.455847         1.304954
 H         1.985034        -2.237161        -1.547903
 H         0.977562        -0.710069        -2.333644
 H         2.630232         0.837099        -1.726292
 H         4.938465         0.213818         0.695578
 H         4.318006        -2.712364         0.979441
 H         5.098508        -1.641052         2.061918
 H         3.016560        -0.184660         2.319721
