19
Iteration:  2785
 C         0.336801         0.303992         0.387320
 C         1.452936        -0.571072        -0.221280
 C         1.559782        -1.233570        -1.637465
 C         2.582685        -0.231682        -1.242238
 O         3.884641        -0.665191        -0.886824
 C         4.275353        -0.366894         0.461568
 C         4.387017        -1.488167         1.412670
 C         3.102658        -0.733190         1.441835
 O         2.035054        -1.433757         0.811453
 H        -0.085966         0.048488         1.398919
 H         0.608574         1.293159         0.638318
 H        -0.531269         0.359242        -0.290791
 H         1.961857        -2.259960        -1.667351
 H         0.928138        -1.066919        -2.533376
 H         2.609635         0.743263        -1.699205
 H         4.750901         0.546768         0.433558
 H         4.327562        -2.461698         1.024958
 H         4.913903        -1.311911         2.290275
 H         2.876742         0.103274         2.096574
