19
Iteration:  2064
 C         0.222466         0.262097         0.012773
 C         1.502781        -0.662458        -0.174320
 C         1.698114        -1.197391        -1.565410
 C         2.581351        -0.153006        -1.114977
 O         3.895248        -0.509409        -0.829285
 C         4.216826        -0.337713         0.563882
 C         4.373940        -1.712001         1.124187
 C         3.151523        -0.886646         1.512581
 O         1.951601        -1.266465         1.046291
 H         0.485220         1.339615         0.441102
 H        -0.247953         0.549151        -1.022698
 H        -0.530549        -0.235171         0.600923
 H         2.255166        -2.143803        -1.600909
 H         0.929990        -0.898456        -2.241056
 H         2.449546         0.828631        -1.615460
 H         4.915457         0.674386         0.856088
 H         4.093522        -2.490824         0.364828
 H         5.317964        -1.927016         1.721005
 H         3.254988        -0.463391         2.450930
