19
Iteration:  4800
 C         0.443011         0.391009         0.229941
 C         1.499265        -0.633126        -0.220934
 C         1.534623        -1.188694        -1.562270
 C         2.595281        -0.189976        -1.240754
 O         3.833628        -0.585769        -0.850894
 C         4.163298        -0.382210         0.510916
 C         4.414506        -1.586659         1.410189
 C         3.104411        -0.786050         1.445930
 O         2.017278        -1.458282         0.812448
 H         0.185318         0.942367        -0.648035
 H        -0.359333        -0.291377         0.442994
 H         0.900513         0.830398         1.153137
 H         1.814388        -2.156685        -1.813687
 H         0.811572        -0.735829        -2.324705
 H         2.473387         0.867759        -1.650555
 H         4.787862         0.633199         0.614818
 H         4.321806        -2.587933         0.938395
 H         5.051166        -1.427492         2.330702
 H         2.784130        -0.295252         2.412928
