19
Iteration:  1852charge 0 multiplicity 1
 C         0.304036         0.300158         0.018261
 C         1.468061        -0.596098        -0.220824
 C         1.599055        -1.384110        -1.439975
 C         2.623821        -0.145925        -1.152015
 O         3.920579        -0.231716        -0.832319
 C         4.187175        -0.433276         0.530271
 C         4.338679        -1.741345         1.151109
 C         3.155693        -0.888763         1.505459
 O         1.994395        -1.316104         0.997623
 H         0.618187         1.154929         0.621521
 H        -0.013736         0.653871        -0.930027
 H        -0.481946        -0.178399         0.686576
 H         2.075025        -2.411186        -1.554379
 H         0.717021        -1.215151        -2.134528
 H         2.394954         0.476655        -1.961322
 H         4.900298         0.273086         0.859843
 H         4.124277        -2.610999         0.577606
 H         5.239622        -1.780903         1.742008
 H         3.108136        -0.338881         2.468120
