19
Iteration:   581
 C         0.506077         0.320651         0.339778
 C         1.518689        -0.596528        -0.232870
 C         1.560084        -1.198079        -1.615840
 C         2.584735        -0.200573        -1.155103
 O         3.899428        -0.694404        -0.834871
 C         4.075461        -0.258198         0.494190
 C         4.444988        -1.366823         1.376665
 C         3.065256        -0.849198         1.460062
 O         1.963450        -1.535766         0.696364
 H         0.870640         1.196893         0.982028
 H        -0.123336         0.830568        -0.380072
 H        -0.167526        -0.461562         0.913069
 H         1.718837        -2.245871        -1.682857
 H         0.766319        -0.816954        -2.236718
 H         2.694073         0.805029        -1.609771
 H         4.507074         0.697569         0.677081
 H         4.426658        -2.283336         0.826011
 H         5.017695        -1.543187         2.265547
 H         2.859700        -0.150113         2.171465
