19
Iteration:  2082charge 0 multiplicity 1
 C         0.197540         0.167575         0.024240
 C         1.484638        -0.545534        -0.192676
 C         1.655048        -1.272554        -1.573728
 C         2.548637        -0.020749        -1.099269
 O         3.955239        -0.482128        -0.838880
 C         4.279101        -0.408327         0.508056
 C         4.398474        -1.782397         1.181636
 C         3.259380        -0.862337         1.490028
 O         1.860099        -1.181249         1.026384
 H         0.277420         0.939028         0.740813
 H        -0.157052         0.532488        -0.968617
 H        -0.418285        -0.586011         0.520541
 H         2.121751        -2.272513        -1.612892
 H         0.919468        -1.076185        -2.351008
 H         2.448312         1.011641        -1.500915
 H         4.888173         0.414582         0.759463
 H         4.329375        -2.677952         0.530158
 H         5.037753        -2.088868         2.089925
 H         3.073160        -0.305451         2.459016
