19
Iteration:  1865
 C         0.303004         0.297599         0.135853
 C         1.514575        -0.588183        -0.183818
 C         1.690239        -1.392403        -1.460164
 C         2.544888        -0.156658        -1.166241
 O         3.975214        -0.288029        -0.894797
 C         4.170518        -0.418705         0.489568
 C         4.389169        -1.756688         1.217035
 C         3.135961        -0.831328         1.479306
 O         1.884910        -1.323474         0.912644
 H         0.693552         1.191426         0.807668
 H        -0.244407         0.780910        -0.760301
 H        -0.448022        -0.251026         0.657002
 H         2.022603        -2.416916        -1.200336
 H         1.074281        -1.207942        -2.317424
 H         2.397224         0.790439        -1.668359
 H         4.848370         0.455197         0.840735
 H         4.177730        -2.616052         0.642737
 H         5.175265        -1.860102         1.925653
 H         2.999892        -0.344329         2.367659
