19
Iteration:  2081
 C         0.198394         0.175618         0.016389
 C         1.478298        -0.546228        -0.194031
 C         1.655473        -1.269693        -1.575528
 C         2.558648        -0.030342        -1.095350
 O         3.955647        -0.482566        -0.834987
 C         4.264126        -0.402775         0.508501
 C         4.402454        -1.782252         1.177072
 C         3.268484        -0.856513         1.490562
 O         1.865857        -1.185859         1.031296
 H         0.297579         0.919955         0.722283
 H        -0.157068         0.513526        -0.939629
 H        -0.433900        -0.571599         0.551033
 H         2.107910        -2.266584        -1.633980
 H         0.904292        -1.101567        -2.372479
 H         2.465269         1.005044        -1.458466
 H         4.819038         0.384686         0.742541
 H         4.319150        -2.645675         0.519748
 H         5.001529        -2.110232         2.052045
 H         3.061943        -0.301315         2.470783
