19
Iteration:  1239
 C         0.164996         0.164809         0.051134
 C         1.463984        -0.626245        -0.136970
 C         1.666605        -1.192947        -1.472516
 C         2.581313        -0.118623        -1.106860
 O         3.941161        -0.484501        -0.908679
 C         4.287584        -0.367432         0.480576
 C         4.347308        -1.733778         1.200907
 C         3.181012        -0.729353         1.474808
 O         1.998901        -1.312747         0.958974
 H         0.078984         1.060296         0.730731
 H         0.016658         0.680125        -0.831752
 H        -0.663964        -0.482866         0.356420
 H         2.266048        -2.126984        -1.472981
 H         0.819554        -1.208412        -2.169439
 H         2.332394         0.975960        -1.401650
 H         5.044011         0.384027         0.763715
 H         3.867534        -2.571585         0.692279
 H         5.170351        -1.977780         1.885206
 H         3.158002        -0.155985         2.471244
