19
Iteration:  1489charge 0 multiplicity 1
 C         0.284198         0.346268         0.121014
 C         1.440169        -0.541132        -0.213418
 C         1.582196        -1.351157        -1.534467
 C         2.557205        -0.243984        -1.116372
 O         3.932964        -0.365294        -0.863677
 C         4.221437        -0.371623         0.571312
 C         4.580433        -1.679461         1.247620
 C         3.142658        -0.914609         1.462702
 O         1.895953        -1.336183         0.860992
 H         0.712820         1.008591         0.889575
 H        -0.084312         1.010277        -0.691332
 H        -0.687044        -0.235888         0.468401
 H         1.861868        -2.367336        -1.310983
 H         1.027194        -1.059403        -2.401452
 H         2.400296         0.680626        -1.763690
 H         4.708833         0.465564         0.853867
 H         4.206473        -2.544240         0.738619
 H         5.405145        -1.654751         1.954166
 H         2.926307        -0.434057         2.563791
