19
Iteration:   994charge 0 multiplicity 1
 C         0.247448         0.215837         0.089444
 C         1.531281        -0.568243        -0.214266
 C         1.698237        -1.359379        -1.524758
 C         2.585098        -0.146529        -1.142535
 O         3.872302        -0.391199        -0.861865
 C         4.264880        -0.364651         0.522902
 C         4.409091        -1.751176         1.182388
 C         3.197044        -0.849645         1.451718
 O         1.878289        -1.167145         1.014316
 H         0.341687         0.710454         1.009708
 H        -0.173812         0.858421        -0.762098
 H        -0.691582        -0.457887         0.318057
 H         2.096732        -2.399295        -1.338628
 H         0.813224        -1.283546        -2.234097
 H         2.303200         0.739110        -1.736134
 H         4.968530         0.370210         0.573029
 H         4.398139        -2.687488         0.515026
 H         5.095178        -1.895578         2.076548
 H         3.082647        -0.545662         2.484438
