19
Iteration:   793charge 0 multiplicity 1
 C         0.394877         0.300631         0.246530
 C         1.458559        -0.597937        -0.193831
 C         1.513293        -1.286506        -1.545820
 C         2.581563        -0.142041        -1.253161
 O         3.970700        -0.514892        -0.823386
 C         4.183207        -0.288541         0.501790
 C         4.417419        -1.526828         1.338343
 C         3.108609        -0.864733         1.428994
 O         2.017312        -1.494819         0.809243
 H         0.581581         1.058749         1.156379
 H         0.094303         1.095683        -0.564623
 H        -0.386981        -0.404483         0.427021
 H         1.683565        -2.350961        -1.435616
 H         0.743077        -1.188087        -2.274515
 H         2.593812         0.839480        -1.666245
 H         4.534408         0.861428         0.771776
 H         4.194989        -2.384416         0.732444
 H         4.995164        -1.630386         2.203013
 H         2.714858        -0.302459         2.318439
