19
Iteration:  2159
 C         0.369753         0.307976         0.138032
 C         1.492056        -0.620752        -0.179844
 C         1.637480        -1.270446        -1.632250
 C         2.551153        -0.142871        -1.161322
 O         3.887426        -0.458356        -0.879640
 C         4.181023        -0.349010         0.538936
 C         4.438930        -1.647714         1.301233
 C         3.103954        -0.895782         1.481597
 O         1.937597        -1.365404         0.937554
 H         0.635990         0.831352         1.027072
 H         0.226059         1.137200        -0.603206
 H        -0.485908        -0.331141         0.162285
 H         2.195039        -2.208256        -1.598178
 H         0.854770        -1.025553        -2.330948
 H         2.491498         0.861384        -1.683104
 H         4.662420         0.499877         0.833964
 H         4.220163        -2.568746         0.666456
 H         5.320871        -1.689428         2.057503
 H         2.822994        -0.329967         2.426943
