19
Iteration:  1509charge 0 multiplicity 1
 C         0.260237         0.328239         0.157527
 C         1.465908        -0.587151        -0.166391
 C         1.654998        -1.333857        -1.456179
 C         2.621236        -0.150165        -1.201160
 O         3.999433        -0.350929        -0.885616
 C         4.251825        -0.341380         0.496567
 C         4.330089        -1.724757         1.203434
 C         3.128117        -0.897483         1.415072
 O         1.894532        -1.363640         0.968643
 H         0.397894         1.012295         0.945128
 H        -0.131085         0.866247        -0.810175
 H        -0.651960        -0.359477         0.279076
 H         2.078306        -2.327505        -1.295601
 H         0.889542        -1.365144        -2.223442
 H         2.376934         0.788864        -1.768078
 H         4.908395         0.478384         0.829833
 H         4.513395        -2.559180         0.557653
 H         4.986556        -1.773550         2.072098
 H         3.219653        -0.269340         2.420664
