19
Iteration:   535
 C         0.393257         0.312936         0.253958
 C         1.525150        -0.596997        -0.228066
 C         1.503958        -1.228181        -1.626794
 C         2.558184        -0.143860        -1.158022
 O         3.858398        -0.558446        -0.915940
 C         4.185269        -0.355529         0.524754
 C         4.428450        -1.555770         1.492995
 C         3.096536        -0.773766         1.394622
 O         2.045083        -1.496555         0.794409
 H         0.733652         1.194999         0.788853
 H        -0.174565         0.786480        -0.707117
 H        -0.249746        -0.422518         0.819496
 H         1.926249        -2.241345        -1.587416
 H         0.765168        -0.957150        -2.387134
 H         2.388358         0.934302        -1.435917
 H         4.766106         0.479793         0.509205
 H         4.516418        -2.626299         1.252650
 H         5.250589        -1.327145         2.197762
 H         2.771806        -0.279723         2.366038
