19
Iteration:  3466charge 0 multiplicity 1
 C         0.207378         0.283258         0.117234
 C         1.449188        -0.546767        -0.161088
 C         1.593994        -1.157531        -1.523895
 C         2.644382        -0.165306        -1.244207
 O         3.921712        -0.587616        -0.841354
 C         4.194833        -0.332803         0.457429
 C         4.436540        -1.646948         1.292407
 C         3.190877        -0.919090         1.476890
 O         1.994071        -1.356269         0.960990
 H         0.027528         1.244478        -0.576765
 H        -0.551658        -0.353003        -0.207488
 H         0.132355         0.742768         1.160175
 H         1.846443        -2.286295        -1.566150
 H         0.773396        -0.825981        -2.226611
 H         2.655422         0.935483        -1.556993
 H         4.553648         0.791000         0.682635
 H         4.625280        -2.456070         0.594124
 H         5.065974        -1.821536         2.111351
 H         3.055936        -0.477068         2.418115
