19
Iteration:  1687charge 0 multiplicity 1
 C         0.463223         0.400893         0.345388
 C         1.498298        -0.676448        -0.274800
 C         1.581355        -1.172272        -1.739990
 C         2.523836        -0.226800        -1.226626
 O         3.846154        -0.678472        -0.763077
 C         4.087123        -0.241150         0.594176
 C         4.443576        -1.508070         1.414180
 C         3.079412        -0.861932         1.444438
 O         2.045029        -1.483460         0.708378
 H         0.756642         0.903455         1.261453
 H         0.179486         1.017518        -0.421061
 H        -0.379049        -0.158109         0.877499
 H         1.663536        -2.301932        -1.864408
 H         0.885993        -0.579954        -2.444449
 H         2.594434         0.769834        -1.714914
 H         4.515605         0.655496         0.772035
 H         4.861744        -2.200162         0.642691
 H         5.093167        -1.176281         2.295362
 H         2.884299        -0.351119         2.503440
