19
Iteration:  1818charge 0 multiplicity 1
 C         0.231263         0.324524        -0.016161
 C         1.428923        -0.595490        -0.202243
 C         1.726899        -1.378971        -1.445017
 C         2.490942        -0.137343        -1.067018
 O         3.898554        -0.319594        -0.844679
 C         4.280380        -0.388370         0.535530
 C         4.410702        -1.798615         1.125297
 C         3.216261        -0.961662         1.449631
 O         1.920636        -1.205895         1.034476
 H         0.431480         1.174805         0.594928
 H        -0.095024         0.710175        -0.939701
 H        -0.749092        -0.273076         0.278488
 H         2.282253        -2.327066        -1.282387
 H         0.991022        -1.231756        -2.309587
 H         2.415951         0.720081        -1.750966
 H         4.827977         0.449684         0.797371
 H         4.350013        -2.630726         0.376757
 H         5.197772        -1.965400         1.897910
 H         3.252813        -0.403239         2.469980
