19
Iteration:  2998
 C         0.373092         0.331311         0.255989
 C         1.440488        -0.548102        -0.254543
 C         1.518956        -1.203060        -1.605136
 C         2.555772        -0.140662        -1.156906
 O         3.878388        -0.606968        -0.887990
 C         4.230056        -0.326554         0.511031
 C         4.479206        -1.550956         1.465584
 C         3.102326        -0.867025         1.487942
 O         1.998213        -1.486306         0.744036
 H         0.824269         1.293332         0.262191
 H        -0.538424         0.564318        -0.432109
 H         0.064191         0.059550         1.271433
 H         1.973531        -2.199164        -1.577118
 H         0.875128        -1.141886        -2.444112
 H         2.473686         0.706879        -1.873308
 H         4.868044         0.538507         0.642219
 H         4.417861        -2.576053         1.154378
 H         5.216349        -1.291064         2.266103
 H         2.837755        -0.235877         2.300769
