19
Iteration:  3544
 C         0.477200         0.256632         0.302217
 C         1.540016        -0.552477        -0.273711
 C         1.435115        -1.230729        -1.641206
 C         2.626152        -0.129685        -1.203862
 O         3.915858        -0.565077        -0.877961
 C         4.141266        -0.396609         0.533685
 C         4.391552        -1.571725         1.431918
 C         3.039595        -0.788390         1.461412
 O         2.043145        -1.439055         0.734863
 H        -0.263531         0.758607        -0.446628
 H        -0.205436        -0.159953         1.008458
 H         0.942912         0.981942         0.981255
 H         1.709993        -2.264915        -1.639678
 H         0.548410        -0.727187        -2.135126
 H         2.519037         0.782117        -1.844359
 H         4.811746         0.465235         0.980358
 H         4.466872        -2.584982         1.145156
 H         5.047314        -1.345206         2.266024
 H         2.710956        -0.315949         2.355630
