19
Iteration:  4322
 C         0.538162         0.397205         0.300195
 C         1.552815        -0.569816        -0.240073
 C         1.603711        -1.304306        -1.562870
 C         2.504573        -0.103885        -1.191377
 O         3.862487        -0.452668        -0.915487
 C         4.102391        -0.380498         0.457694
 C         4.339760        -1.581413         1.435515
 C         3.052508        -0.882182         1.472271
 O         2.000865        -1.534629         0.770011
 H         0.344973         1.064993        -0.482581
 H        -0.331227        -0.007717         0.768460
 H         1.017798         0.980929         1.095276
 H         2.093968        -2.298621        -1.636075
 H         0.904774        -1.277932        -2.396488
 H         2.324823         0.843444        -1.778756
 H         4.833093         0.547549         0.699732
 H         4.342653        -2.558199         0.934233
 H         5.090738        -1.391824         2.213350
 H         2.672283        -0.438189         2.565988
