19
Iteration:  2704charge 0 multiplicity 1
 C         0.358747         0.374460         0.070625
 C         1.470661        -0.565343        -0.142616
 C         1.595031        -1.275184        -1.514711
 C         2.546260        -0.178096        -1.134712
 O         3.835654        -0.673692        -0.867611
 C         4.147709        -0.276111         0.453933
 C         4.493446        -1.502016         1.291923
 C         3.144831        -0.866014         1.413065
 O         1.996081        -1.446186         0.962169
 H        -0.457323        -0.228167        -0.264615
 H         0.364781         0.705772         1.153673
 H         0.440022         1.395001        -0.400371
 H         1.930942        -2.385798        -1.399186
 H         0.626293        -1.126200        -2.197143
 H         2.398246         0.815966        -1.663353
 H         4.617781         0.771580         0.621369
 H         4.765701        -2.393540         0.651392
 H         5.350598        -1.232467         2.051754
 H         3.010811        -0.380842         2.406020
