19
Iteration:  3979
 C         0.371083         0.332307         0.148710
 C         1.457883        -0.595877        -0.177787
 C         1.523131        -1.229212        -1.556721
 C         2.593222        -0.219735        -1.186995
 O         3.941755        -0.491405        -0.874681
 C         4.195372        -0.327242         0.520144
 C         4.491304        -1.608240         1.304734
 C         3.108244        -0.958649         1.493648
 O         1.932190        -1.344395         0.875546
 H         0.111502         1.068185        -0.688786
 H        -0.524889        -0.176663         0.428002
 H         0.751245         0.984999         0.968156
 H         1.764236        -2.300881        -1.554266
 H         0.719494        -1.000628        -2.396087
 H         2.459588         0.776039        -1.591410
 H         4.660373         0.582547         0.740086
 H         4.477637        -2.556623         0.587919
 H         5.253418        -1.627424         2.152718
 H         2.901205        -0.524087         2.510801
