19
Iteration:  2297
 C         0.284861         0.231807         0.041822
 C         1.501350        -0.520920        -0.171961
 C         1.474603        -1.218293        -1.548750
 C         2.586843        -0.107207        -1.234284
 O         3.893285        -0.595349        -0.814162
 C         4.230797        -0.383458         0.517524
 C         4.484304        -1.608168         1.310238
 C         3.203379        -0.850794         1.536739
 O         1.972999        -1.360724         0.889550
 H         0.274653         0.639652         1.048973
 H         0.055238         1.103181        -0.565751
 H        -0.608728        -0.493908         0.014271
 H         1.839356        -2.219814        -1.611901
 H         0.703623        -0.867764        -2.272956
 H         2.600186         0.915035        -1.615202
 H         4.633264         0.683392         0.820637
 H         4.576513        -2.535056         0.753611
 H         5.133882        -1.732304         2.170290
 H         3.178824        -0.140656         2.357169
