19
Iteration:   749
 C         0.308274         0.245437         0.112665
 C         1.450345        -0.610119        -0.209051
 C         1.665040        -1.266954        -1.574692
 C         2.534140        -0.134812        -1.183976
 O         3.861509        -0.395531        -0.910679
 C         4.220098        -0.367688         0.553776
 C         4.413995        -1.689707         1.287757
 C         3.206042        -0.858111         1.481919
 O         1.946683        -1.364075         0.946497
 H         0.763129         1.305879         0.382576
 H        -0.349071         0.646672        -0.712752
 H        -0.253550        -0.073779         0.972918
 H         2.159840        -2.182563        -1.298736
 H         0.929469        -1.411429        -2.366525
 H         2.289347         0.838749        -1.573221
 H         4.872412         0.614225         0.862884
 H         4.270940        -2.635020         0.779089
 H         5.156589        -1.880526         2.040008
 H         3.090918        -0.308865         2.437595
