19
Iteration:   912
 C         0.351139         0.293587         0.196586
 C         1.526561        -0.593493        -0.203606
 C         1.660786        -1.298324        -1.661033
 C         2.464826        -0.198769        -1.236893
 O         3.831087        -0.442421        -0.812722
 C         4.229053        -0.395963         0.499486
 C         4.397320        -1.622807         1.324257
 C         3.150220        -0.814046         1.459152
 O         1.968141        -1.374847         0.929433
 H         0.622396         1.354685         0.762527
 H        -0.291140         0.643426        -0.614677
 H        -0.168499        -0.369265         0.820486
 H         2.153436        -2.233115        -1.652309
 H         1.047085        -1.134659        -2.489145
 H         2.318960         0.818894        -1.580599
 H         4.957905         0.516107         0.752323
 H         4.446669        -2.553734         0.828854
 H         5.125066        -1.515624         2.067449
 H         3.075284        -0.319368         2.422661
