19
Iteration:  3966charge 0 multiplicity 1
 C         0.392645         0.421747         0.228442
 C         1.489533        -0.551238        -0.284052
 C         1.629293        -1.374702        -1.526758
 C         2.554886        -0.178136        -1.112890
 O         3.907461        -0.447407        -0.827819
 C         4.188477        -0.361903         0.557954
 C         4.472429        -1.637961         1.225047
 C         3.137047        -0.921693         1.389126
 O         1.857695        -1.380541         0.865194
 H        -0.063649         0.931012        -0.678137
 H        -0.433857        -0.161352         0.663943
 H         0.704085         1.115993         1.022451
 H         1.896566        -2.442476        -1.396142
 H         0.818985        -1.026520        -2.391997
 H         2.478396         0.641725        -1.871863
 H         4.694577         0.541454         0.891840
 H         4.620290        -2.627586         0.673803
 H         5.090041        -1.515719         2.164582
 H         3.016780        -0.388640         2.319692
