19
Iteration:  1057
 C         0.171550         0.271420         0.164608
 C         1.502411        -0.612868        -0.253340
 C         1.548298        -1.229057        -1.630535
 C         2.511990        -0.118975        -1.202719
 O         3.866597        -0.521360        -0.866145
 C         4.216197        -0.424406         0.546977
 C         4.529850        -1.673824         1.430262
 C         3.199031        -0.806358         1.450144
 O         2.027708        -1.307522         0.885085
 H         0.428590         0.916123         1.004549
 H         0.085650         0.899837        -0.797606
 H        -0.683618        -0.285694         0.469320
 H         2.123688        -2.184196        -1.702331
 H         0.650374        -1.223394        -2.307870
 H         2.616579         0.860484        -1.572276
 H         4.869875         0.453417         0.842797
 H         4.558605        -2.633939         0.892743
 H         5.293786        -1.694304         2.235236
 H         3.032924        -0.142612         2.286318
