19
Iteration:  3180
 C         0.223220         0.308524         0.175382
 C         1.470149        -0.607500        -0.191459
 C         1.498184        -1.301481        -1.492197
 C         2.599681        -0.187228        -1.203283
 O         3.940683        -0.497851        -0.859358
 C         4.311803        -0.338377         0.532596
 C         4.410249        -1.632333         1.255982
 C         3.163404        -0.782815         1.447738
 O         2.010658        -1.375395         0.839866
 H         0.480388         1.184177         0.946359
 H        -0.102539         0.826120        -0.689629
 H        -0.553947        -0.281176         0.723093
 H         1.781489        -2.347025        -1.589685
 H         0.849889        -0.880653        -2.147093
 H         2.379864         0.757807        -1.618948
 H         4.910198         0.692877         0.788394
 H         4.305190        -2.702156         0.813307
 H         5.142494        -1.818094         2.063602
 H         2.909522        -0.391809         2.440766
