19
Iteration:  4350charge 0 multiplicity 1
 C         0.323135         0.299499         0.275691
 C         1.443085        -0.557752        -0.226120
 C         1.517422        -1.184953        -1.603684
 C         2.619955        -0.184148        -1.136263
 O         3.965931        -0.603016        -0.858715
 C         4.183182        -0.342243         0.479365
 C         4.480198        -1.540301         1.400727
 C         3.131094        -0.848775         1.428506
 O         1.951805        -1.441746         0.789794
 H         0.159793         1.129821        -0.504355
 H        -0.644444        -0.164112         0.540842
 H         0.703582         0.933141         1.167295
 H         1.595037        -2.293751        -1.748916
 H         0.870290        -0.783449        -2.376755
 H         2.473644         0.772254        -1.659202
 H         4.683024         0.532095         0.780962
 H         4.500239        -2.404268         0.717842
 H         5.204463        -1.731667         2.197929
 H         2.835523        -0.402587         2.285424
