19
Iteration:  1442charge 0 multiplicity 1
 C         0.425922         0.337022         0.233946
 C         1.480325        -0.656276        -0.184311
 C         1.627053        -1.195750        -1.603539
 C         2.582980        -0.135060        -1.116030
 O         3.888641        -0.600946        -0.872277
 C         4.072970        -0.385744         0.458036
 C         4.439491        -1.521323         1.330567
 C         3.107229        -0.808112         1.470027
 O         1.991890        -1.495737         0.832436
 H         0.745837         1.100038         0.920634
 H        -0.145512         0.863943        -0.725464
 H        -0.419846        -0.299604         0.569536
 H         1.937590        -2.261624        -1.612233
 H         0.831447        -0.801511        -2.273065
 H         2.606072         0.965264        -1.245852
 H         4.583387         0.667482         0.620390
 H         4.456985        -2.426681         0.673733
 H         5.194365        -1.331280         2.095689
 H         2.729823         0.013917         2.267969
