19
Iteration:  4301charge 0 multiplicity 1
 C         0.569807         0.421222         0.272902
 C         1.452729        -0.710308        -0.240879
 C         1.562269        -1.249878        -1.634680
 C         2.539605        -0.214932        -1.236468
 O         3.853373        -0.453536        -0.848163
 C         4.112281        -0.328663         0.589442
 C         4.354173        -1.610540         1.310106
 C         3.095900        -0.795946         1.509469
 O         2.039836        -1.497673         0.770024
 H         0.183968         1.060589        -0.455724
 H        -0.231233         0.073039         0.940755
 H         1.125983         1.045913         0.910890
 H         1.992484        -2.268066        -1.763477
 H         0.806964        -1.152668        -2.403681
 H         2.311599         0.787682        -1.654863
 H         4.611629         0.584244         1.093242
 H         4.357378        -2.570789         0.846805
 H         5.049242        -1.694963         2.163783
 H         2.697219        -0.208985         2.445578
