19
Iteration:   116charge 0 multiplicity 1
 C         0.274322         0.377216         0.173788
 C         1.466458        -0.636307        -0.254080
 C         1.541814        -1.273859        -1.654408
 C         2.508322        -0.193344        -1.194184
 O         3.887215        -0.533768        -0.903085
 C         4.239422        -0.353076         0.482316
 C         4.533838        -1.589114         1.408152
 C         3.167506        -0.844022         1.524254
 O         1.978001        -1.410716         0.951461
 H         0.636354         1.046351         0.949340
 H        -0.149463         0.965169        -0.641470
 H        -0.561308        -0.225386         0.543996
 H         1.937837        -2.292154        -1.685078
 H         0.804813        -0.969316        -2.414068
 H         2.450786         0.799664        -1.720558
 H         4.776619         0.619000         0.545668
 H         4.653747        -2.551878         0.815420
 H         5.267380        -1.387630         2.243091
 H         2.997581        -0.174998         2.480317
