19
Iteration:   398charge 0 multiplicity 1
 C         0.327146         0.285894         0.160149
 C         1.463627        -0.595957        -0.218450
 C         1.666904        -1.335303        -1.549959
 C         2.563409        -0.231125        -1.233895
 O         3.868107        -0.387759        -0.891450
 C         4.209492        -0.391777         0.483771
 C         4.412156        -1.682837         1.303453
 C         3.152509        -0.840006         1.525618
 O         1.934086        -1.275222         0.917051
 H         0.694126         1.160925         0.839019
 H        -0.437977         0.548201        -0.545799
 H        -0.266437        -0.304912         0.929969
 H         2.048033        -2.332705        -1.457697
 H         0.985782        -0.922596        -2.265420
 H         2.342314         0.660242        -1.812054
 H         5.056186         0.423125         0.634612
 H         4.373953        -2.660908         0.828844
 H         5.146668        -1.520200         2.081971
 H         3.114658        -0.370868         2.425301
