19
Iteration:  1599charge 0 multiplicity 1
 C         0.237590         0.246002         0.158932
 C         1.487420        -0.565197        -0.213305
 C         1.690428        -1.155293        -1.541617
 C         2.593826        -0.081702        -1.191016
 O         3.842629        -0.616808        -0.838330
 C         4.188006        -0.356332         0.520432
 C         4.405405        -1.620037         1.272624
 C         3.214621        -0.851804         1.521277
 O         1.995210        -1.356443         0.851594
 H         0.421496         1.002919         0.932513
 H        -0.226833         0.691456        -0.659797
 H        -0.563753        -0.481539         0.599186
 H         1.981398        -2.197900        -1.692910
 H         0.978687        -0.885330        -2.315190
 H         2.630550         0.798440        -1.864481
 H         4.733253         0.468077         0.724514
 H         4.246322        -2.606767         0.827153
 H         5.080435        -1.734030         2.116152
 H         2.947149        -0.296832         2.512495
