19
Iteration:   412charge 0 multiplicity 1
 C         0.290329         0.239694         0.164331
 C         1.509698        -0.565893        -0.249648
 C         1.595631        -1.404990        -1.556775
 C         2.519746        -0.114556        -1.174341
 O         3.900335        -0.397387        -0.859204
 C         4.245292        -0.397397         0.512292
 C         4.395505        -1.695342         1.247128
 C         3.229108        -0.793401         1.482577
 O         1.939002        -1.272720         0.963759
 H         0.616157         1.165163         0.665720
 H        -0.018859         0.783996        -0.909935
 H        -0.377385        -0.425990         0.635461
 H         2.002967        -2.402460        -1.446473
 H         0.843127        -1.472271        -2.336230
 H         2.424067         0.798066        -1.720520
 H         4.827776         0.399785         0.832899
 H         4.132683        -2.619716         0.793502
 H         5.204112        -1.874295         1.941938
 H         2.931435        -0.264581         2.486778
