19
Iteration:  1533charge 0 multiplicity 1
 C         0.331250         0.212053         0.070169
 C         1.502998        -0.582414        -0.185045
 C         1.700951        -1.311405        -1.524896
 C         2.498617        -0.062097        -1.164195
 O         3.894169        -0.419037        -0.845499
 C         4.215319        -0.426725         0.476623
 C         4.345393        -1.741576         1.171456
 C         3.170878        -0.827206         1.578833
 O         1.957624        -1.236914         0.973330
 H         0.512276         0.915828         0.918980
 H        -0.062102         0.739962        -0.775725
 H        -0.535127        -0.570998         0.266884
 H         2.304803        -2.216826        -1.533214
 H         0.960416        -1.231704        -2.314237
 H         2.285298         0.861248        -1.763127
 H         4.845566         0.303837         0.765614
 H         3.975829        -2.601813         0.609913
 H         5.134809        -2.077851         1.840862
 H         3.203768        -0.169507         2.588959
