19
Iteration:   718
 C         0.205813         0.191587         0.026851
 C         1.485647        -0.566403        -0.132370
 C         1.642128        -1.230407        -1.499722
 C         2.602045        -0.104317        -1.140397
 O         3.899914        -0.439284        -0.860843
 C         4.246356        -0.410110         0.529569
 C         4.437112        -1.723074         1.144562
 C         3.199462        -0.821317         1.462241
 O         1.941029        -1.325228         0.996715
 H         0.517655         1.160954         0.366734
 H        -0.413293         0.345948        -0.965108
 H        -0.400988        -0.232955         0.734572
 H         2.082965        -2.201945        -1.479548
 H         0.798704        -1.318134        -2.140333
 H         2.560275         0.906735        -1.530649
 H         4.834950         0.557631         0.904725
 H         3.947619        -2.541756         0.650752
 H         5.160169        -1.739434         1.907157
 H         3.076300        -0.159266         2.412785
