19
Iteration:  3055charge 0 multiplicity 1
 C         0.429027         0.368403         0.326549
 C         1.437533        -0.618909        -0.258562
 C         1.569721        -1.310919        -1.603932
 C         2.584551        -0.179719        -1.175671
 O         3.887148        -0.626562        -0.834853
 C         4.153330        -0.262181         0.503929
 C         4.404348        -1.523500         1.354490
 C         3.113307        -0.816134         1.387329
 O         1.992241        -1.455610         0.817088
 H         0.949635         0.973346         1.051184
 H        -0.043787         0.998774        -0.493426
 H        -0.461193         0.002903         0.815396
 H         2.075238        -2.388256        -1.676121
 H         0.851247        -0.947911        -2.441885
 H         2.493585         0.845392        -1.740082
 H         4.562260         0.644638         0.810789
 H         4.676206        -2.407733         0.761673
 H         5.110817        -1.422139         2.142118
 H         2.850380        -0.304958         2.361427
