19
Iteration:  3427charge 0 multiplicity 1
 C         0.351448         0.335149         0.121641
 C         1.482951        -0.631129        -0.209045
 C         1.666214        -1.296621        -1.546204
 C         2.524854        -0.140884        -1.197425
 O         3.837319        -0.351777        -0.860918
 C         4.214784        -0.400688         0.518926
 C         4.324640        -1.751870         1.291425
 C         3.205395        -0.868521         1.469000
 O         1.998722        -1.335886         0.908898
 H         0.012206         0.877761        -0.713837
 H        -0.586388        -0.197277         0.640918
 H         0.678840         0.919058         0.965315
 H         2.201939        -2.187183        -1.380717
 H         0.917960        -1.268754        -2.367059
 H         2.284133         0.791524        -1.647677
 H         4.986451         0.283133         0.788071
 H         4.112436        -2.670618         0.785367
 H         5.099823        -1.685006         2.090686
 H         3.110011        -0.226044         2.408982
