19
Iteration:  1591charge 0 multiplicity 1
 C         0.181887         0.201539         0.084689
 C         1.522447        -0.510526        -0.181982
 C         1.703278        -1.138782        -1.505047
 C         2.584749        -0.061183        -1.196081
 O         3.903622        -0.594409        -0.831501
 C         4.194354        -0.384250         0.482317
 C         4.421851        -1.687498         1.276336
 C         3.213145        -0.818578         1.477284
 O         1.922120        -1.383729         0.890617
 H         0.326170         1.039020         0.960258
 H        -0.291896         0.641898        -0.792430
 H        -0.419754        -0.511408         0.642604
 H         1.975200        -2.256727        -1.401417
 H         0.806707        -0.815325        -2.141755
 H         2.623673         0.915593        -1.639462
 H         4.908157         0.538013         0.496282
 H         4.164170        -2.661746         0.796484
 H         5.150297        -1.442461         2.119825
 H         3.125381        -0.433074         2.481617
