19
Iteration:  4691
 C         0.344767         0.377802         0.176155
 C         1.429362        -0.555282        -0.198134
 C         1.638217        -1.386782        -1.516124
 C         2.530946        -0.187765        -1.115095
 O         4.002615        -0.339120        -0.934668
 C         4.229874        -0.377564         0.446699
 C         4.357506        -1.755550         1.334027
 C         3.163617        -0.825748         1.446677
 O         1.905558        -1.408207         0.867277
 H        -0.019844         1.112892        -0.443385
 H        -0.524446         0.054774         0.629343
 H         0.718201         1.181662         0.882832
 H         2.024019        -2.422048        -1.268853
 H         0.937867        -1.352304        -2.282539
 H         2.296024         0.798923        -1.624082
 H         5.018186         0.448043         0.834662
 H         4.152955        -2.707955         0.765018
 H         5.134922        -1.865997         2.115048
 H         2.840175        -0.184756         2.293262
