19
Iteration:  3907charge 0 multiplicity 1
 C         0.386171         0.289661         0.132561
 C         1.424826        -0.663240        -0.187769
 C         1.552837        -1.218145        -1.612345
 C         2.557016        -0.151405        -1.135999
 O         3.919400        -0.377240        -0.888488
 C         4.269766        -0.425238         0.503909
 C         4.412376        -1.722397         1.334411
 C         3.188858        -0.836592         1.465392
 O         1.932607        -1.357759         0.914634
 H        -0.098678         0.667717        -0.794055
 H        -0.525707        -0.260687         0.730121
 H         0.634249         1.293982         0.537827
 H         1.883980        -2.278378        -1.600219
 H         0.771648        -0.978306        -2.265272
 H         2.333234         0.803474        -1.613371
 H         4.916200         0.452988         0.909591
 H         4.227339        -2.681293         0.881207
 H         5.072577        -1.733871         2.135555
 H         3.092182        -0.221853         2.377502
