19
Iteration:  4515
 C         0.431189         0.383258         0.133106
 C         1.587785        -0.625725        -0.212011
 C         1.502724        -1.195073        -1.579824
 C         2.520526        -0.141653        -1.181809
 O         3.822306        -0.583227        -0.838209
 C         4.125459        -0.333914         0.563293
 C         4.486035        -1.599652         1.300249
 C         3.150154        -0.863383         1.526600
 O         2.014896        -1.481894         0.849133
 H         0.196254         0.951038        -0.764818
 H        -0.529029         0.013889         0.412971
 H         0.674215         1.178776         0.888332
 H         1.823886        -2.178497        -1.812882
 H         0.542551        -1.086726        -2.160829
 H         2.592743         0.962273        -1.424614
 H         4.513347         0.735989         0.664501
 H         4.414192        -2.536602         0.759952
 H         5.256348        -1.621323         2.026962
 H         2.914299        -0.300030         2.361753
