19
Iteration:  2031
 C         0.344191         0.402459         0.097067
 C         1.457033        -0.627100        -0.204835
 C         1.605508        -1.287542        -1.515842
 C         2.514540        -0.122001        -1.176631
 O         3.916108        -0.410715        -0.868406
 C         4.172289        -0.402895         0.577287
 C         4.440025        -1.679093         1.334247
 C         3.149517        -0.950911         1.409774
 O         1.991868        -1.378443         0.868076
 H         0.746682         1.293611         0.750625
 H        -0.183072         0.685295        -0.887510
 H        -0.300999        -0.067897         0.802670
 H         2.072221        -2.292202        -1.413341
 H         0.873562        -1.283535        -2.288537
 H         2.178069         0.802618        -1.676288
 H         4.571449         0.689556         1.034685
 H         4.605117        -2.671853         0.861615
 H         5.304926        -1.578383         2.082166
 H         2.846498        -0.371983         2.203930
