19
Iteration:  2670
 C         0.262546         0.325174         0.136727
 C         1.467785        -0.595531        -0.219252
 C         1.579039        -1.346827        -1.543844
 C         2.537571        -0.246544        -1.162520
 O         3.853398        -0.501648        -0.867008
 C         4.290079        -0.335104         0.491958
 C         4.457215        -1.663473         1.283075
 C         3.198507        -0.742058         1.464169
 O         1.968853        -1.299424         0.950769
 H        -0.634105        -0.150590        -0.214204
 H         0.203743         0.309297         1.235364
 H         0.433830         1.270418        -0.416141
 H         1.825472        -2.420921        -1.405338
 H         0.855190        -1.129510        -2.272457
 H         2.312367         0.556153        -1.848352
 H         4.959055         0.559378         0.803757
 H         4.490873        -2.598155         0.758329
 H         5.303710        -1.562173         1.962571
 H         3.018614        -0.186951         2.374791
