19
Iteration:  2470charge 0 multiplicity 1
 C         0.308977         0.367724         0.244426
 C         1.428881        -0.622296        -0.229381
 C         1.561945        -1.184045        -1.624072
 C         2.576387        -0.110815        -1.141690
 O         3.847831        -0.712551        -0.817091
 C         4.164021        -0.332548         0.454364
 C         4.538569        -1.502056         1.473278
 C         3.118018        -0.838031         1.388290
 O         2.024992        -1.476438         0.811774
 H         0.483930         0.781901         1.306782
 H         0.240069         1.074260        -0.575000
 H        -0.770224         0.064704         0.229275
 H         1.972730        -2.246720        -1.760265
 H         0.887324        -0.873388        -2.437638
 H         2.700348         0.747071        -1.814004
 H         4.781105         0.682311         0.632406
 H         4.662983        -2.393558         0.802301
 H         5.259711        -1.278577         2.304540
 H         2.891288        -0.308963         2.334691
