19
Iteration:  2537
 C         0.430013         0.379135         0.293239
 C         1.466619        -0.636870        -0.209326
 C         1.548415        -1.325959        -1.644097
 C         2.508542        -0.209313        -1.128231
 O         3.879822        -0.571808        -0.882921
 C         4.208538        -0.346145         0.481668
 C         4.418145        -1.508123         1.424538
 C         3.118306        -0.745887         1.463264
 O         1.987872        -1.495626         0.758359
 H         0.248665         0.368600         1.371603
 H         0.688262         1.409919         0.041135
 H        -0.498055         0.414018        -0.328920
 H         1.968255        -2.284837        -1.587088
 H         0.911783        -0.953423        -2.436879
 H         2.479685         0.735812        -1.684414
 H         4.795485         0.692939         0.630774
 H         4.599448        -2.452243         0.931009
 H         5.160245        -1.362128         2.232442
 H         2.815679        -0.210304         2.365920
