19
Iteration:  4394
 C         0.273461         0.194590         0.103953
 C         1.488328        -0.540734        -0.184257
 C         1.631095        -1.068776        -1.562334
 C         2.564795        -0.005935        -1.059033
 O         3.777076        -0.708894        -0.931886
 C         4.242610        -0.456061         0.447366
 C         4.477341        -1.632810         1.362769
 C         3.192547        -0.810941         1.517431
 O         1.978870        -1.359316         0.898295
 H        -0.077756         0.908808        -0.719237
 H        -0.474302        -0.555653         0.420568
 H         0.302387         0.860150         1.099928
 H         2.239042        -1.977988        -1.925418
 H         0.882853        -1.023789        -2.364896
 H         2.585743         0.982433        -1.647715
 H         4.704989         0.527016         0.504264
 H         4.446346        -2.649861         0.984539
 H         5.261624        -1.423900         2.123280
 H         3.027577        -0.140435         2.273543
