19
Iteration:  1893
 C         0.275164         0.284189         0.231515
 C         1.489178        -0.603632        -0.252075
 C         1.678047        -1.323277        -1.571800
 C         2.562679        -0.085189        -1.191642
 O         3.906312        -0.517758        -0.839148
 C         4.199533        -0.359472         0.497087
 C         4.379791        -1.659077         1.301730
 C         3.142214        -0.806290         1.456602
 O         1.944505        -1.343558         0.861328
 H         0.718134         0.909939         0.981931
 H        -0.147279         0.971088        -0.445538
 H        -0.551324        -0.262161         0.844965
 H         2.216499        -2.287897        -1.453473
 H         0.954959        -1.099184        -2.385319
 H         2.630328         0.878129        -1.753399
 H         4.828629         0.441882         0.623377
 H         4.437087        -2.541068         0.621613
 H         5.098778        -1.722630         2.162141
 H         2.917560        -0.299901         2.508043
