19
Iteration:  1666charge 0 multiplicity 1
 C         0.563450         0.405158         0.316449
 C         1.489119        -0.632090        -0.302181
 C         1.489542        -1.176488        -1.597336
 C         2.577416        -0.177062        -1.181835
 O         3.876738        -0.606553        -0.829976
 C         4.083626        -0.252265         0.566545
 C         4.479414        -1.418645         1.425506
 C         3.016848        -0.949916         1.427042
 O         2.023098        -1.585307         0.660667
 H         0.925232         0.842179         1.306669
 H         0.258732         1.116989        -0.386738
 H        -0.324454        -0.186435         0.662127
 H         1.942320        -2.233662        -1.558495
 H         0.649983        -1.040180        -2.369341
 H         2.674069         0.849219        -1.537207
 H         4.445272         0.704159         0.564993
 H         4.426829        -2.503399         1.173535
 H         5.020003        -1.172226         2.406320
 H         2.631321        -0.329380         2.304116
