19
Iteration:  3800charge 0 multiplicity 1
 C         0.412961         0.356466         0.274041
 C         1.535772        -0.616483        -0.164883
 C         1.547533        -1.192515        -1.536796
 C         2.574406        -0.041884        -1.181077
 O         3.910823        -0.595311        -0.914184
 C         4.160675        -0.359858         0.475595
 C         4.327192        -1.554694         1.421590
 C         3.043950        -0.839446         1.407866
 O         2.068177        -1.518595         0.745822
 H         0.326134         0.924458        -0.597883
 H        -0.548950        -0.019897         0.541311
 H         0.849564         0.796478         1.123587
 H         2.071408        -2.283493        -1.569523
 H         0.645687        -1.180883        -2.209511
 H         2.362729         1.009610        -1.581381
 H         4.862874         0.540454         0.694505
 H         4.279941        -2.590504         1.075293
 H         4.945473        -1.449144         2.228454
 H         2.752822        -0.375889         2.343883
