19
Iteration:  4653charge 0 multiplicity 1
 C         0.460552         0.436510         0.107797
 C         1.536135        -0.575608        -0.223081
 C         1.533048        -1.367405        -1.533806
 C         2.551009        -0.173734        -1.229191
 O         3.895841        -0.474927        -0.814274
 C         4.100241        -0.264937         0.579970
 C         4.459608        -1.626823         1.219173
 C         3.174365        -1.002846         1.540147
 O         1.904988        -1.347054         0.883102
 H         0.173364         0.866105        -0.934122
 H        -0.290472        -0.234442         0.688245
 H         0.878424         0.985708         0.925080
 H         1.741556        -2.373156        -1.285275
 H         0.624610        -1.180422        -2.261638
 H         2.390805         0.776355        -1.755959
 H         4.630688         0.578335         0.753581
 H         4.385431        -2.319121         0.394082
 H         5.215724        -1.779921         1.971427
 H         3.093910        -0.692338         2.592466
