19
Iteration:   104
 C         0.351951         0.320609         0.153557
 C         1.456927        -0.598391        -0.165908
 C         1.520382        -1.271384        -1.561421
 C         2.539005        -0.155730        -1.138250
 O         3.919268        -0.622531        -0.915606
 C         4.340147        -0.324681         0.427481
 C         4.487631        -1.418594         1.358835
 C         3.128039        -0.949660         1.486386
 O         1.896797        -1.409665         0.866684
 H         0.573845         0.882486         1.113807
 H         0.250736         1.010112        -0.607242
 H        -0.621897        -0.212076         0.327762
 H         1.942298        -2.276045        -1.815661
 H         0.616716        -1.036777        -2.131074
 H         2.448192         0.889381        -1.575016
 H         4.663057         0.722931         0.759677
 H         4.641154        -2.511559         1.011574
 H         5.147405        -1.230088         2.245466
 H         2.831972        -0.383719         2.439994
