19
Iteration:   381charge 0 multiplicity 1
 C         0.302769         0.322709         0.243581
 C         1.479063        -0.584493        -0.218282
 C         1.545392        -1.349241        -1.568652
 C         2.577527        -0.117574        -1.199283
 O         3.974587        -0.483616        -0.887734
 C         4.202401        -0.357428         0.496484
 C         4.426218        -1.625077         1.333213
 C         3.142596        -0.813555         1.432517
 O         1.965689        -1.405791         0.891241
 H         0.698952         1.256178         0.545281
 H        -0.398335         0.480921        -0.677594
 H        -0.305637        -0.047908         1.045654
 H         1.963964        -2.367897        -1.509111
 H         0.820441        -1.332797        -2.406536
 H         2.557836         0.834848        -1.739261
 H         4.577471         0.553132         0.817960
 H         4.312084        -2.544003         0.770095
 H         5.120788        -1.560505         2.173983
 H         2.939241        -0.172565         2.406376
