19
Iteration:    15
 C         0.288901         0.352141         0.268251
 C         1.461723        -0.612720        -0.151466
 C         1.605857        -1.215671        -1.498843
 C         2.610195        -0.171510        -1.228904
 O         4.015306        -0.629306        -1.026940
 C         4.138930        -0.327851         0.450575
 C         4.332429        -1.500889         1.349795
 C         3.040428        -0.748945         1.545120
 O         2.048894        -1.521301         0.839707
 H         0.564377         0.926956         1.310680
 H         0.179257         1.051452        -0.408573
 H        -0.742302        -0.244885         0.303665
 H         1.892894        -2.245354        -1.357235
 H         0.802004        -1.028826        -2.247112
 H         2.593426         0.818437        -1.737420
 H         4.967952         0.471195         0.591230
 H         4.422213        -2.482861         0.988691
 H         5.184739        -1.225519         1.968469
 H         2.808606        -0.360561         2.480768
