19
Iteration:  4875charge 0 multiplicity 1
 C         0.369639         0.470821         0.191386
 C         1.511842        -0.595916        -0.194328
 C         1.550542        -1.219112        -1.626582
 C         2.551474        -0.221594        -1.146072
 O         3.892878        -0.629076        -0.818068
 C         4.171829        -0.291121         0.563875
 C         4.446472        -1.561862         1.328363
 C         3.154298        -0.878366         1.463477
 O         1.949955        -1.485583         0.819144
 H         0.152489         0.859372        -0.823255
 H        -0.462837         0.014550         0.739944
 H         1.068126         1.160304         0.618136
 H         1.845181        -2.214501        -1.906055
 H         0.716106        -0.823112        -2.266114
 H         2.476797         0.774322        -1.718774
 H         4.742737         0.560554         0.758492
 H         4.580361        -2.391367         0.614842
 H         5.011033        -1.471047         2.315133
 H         2.748715        -0.505192         2.411680
