19
Iteration:  2238
 C         0.521125         0.270746         0.405251
 C         1.556876        -0.641129        -0.276874
 C         1.580428        -1.184232        -1.668642
 C         2.541580        -0.127679        -1.234756
 O         3.879471        -0.623692        -0.941272
 C         4.140120        -0.347240         0.498046
 C         4.317022        -1.505136         1.513681
 C         3.041866        -0.792567         1.505086
 O         2.001089        -1.496317         0.720353
 H         0.994879         1.135973         0.994982
 H        -0.125254         0.629305        -0.409506
 H        -0.086030        -0.244063         1.062890
 H         1.899929        -2.186004        -1.972205
 H         0.933448        -0.688496        -2.387744
 H         2.593961         0.942603        -1.443557
 H         4.716077         0.549949         0.666552
 H         4.456541        -2.538470         1.151298
 H         4.770869        -1.086035         2.411705
 H         2.805596        -0.107458         2.266904
