19
Iteration:  3178charge 0 multiplicity 1
 C         0.215614         0.299280         0.169665
 C         1.464285        -0.587295        -0.166932
 C         1.504350        -1.313186        -1.481893
 C         2.618396        -0.182358        -1.221499
 O         3.950633        -0.492631        -0.858106
 C         4.324014        -0.360374         0.539600
 C         4.389625        -1.617776         1.237698
 C         3.167946        -0.789967         1.439057
 O         2.011592        -1.368885         0.839273
 H         0.465482         1.014751         1.051082
 H        -0.133722         0.834427        -0.606871
 H        -0.590355        -0.251818         0.682264
 H         1.726626        -2.370012        -1.616626
 H         0.788868        -0.899672        -2.264106
 H         2.403327         0.776017        -1.636346
 H         4.848967         0.620642         0.778442
 H         4.265394        -2.652430         0.898631
 H         5.104675        -1.768285         2.065183
 H         2.960643        -0.325020         2.476066
