19
Iteration:   729charge 0 multiplicity 1
 C         0.238907         0.276623         0.074579
 C         1.542099        -0.624669        -0.147767
 C         1.688756        -1.301380        -1.467807
 C         2.543745        -0.093621        -1.092452
 O         3.938729        -0.440262        -0.864480
 C         4.216752        -0.388002         0.437057
 C         4.328632        -1.667899         1.189999
 C         3.148931        -0.854934         1.455979
 O         1.972518        -1.332796         0.971472
 H         0.276465         1.325420         0.296694
 H        -0.317224         0.195344        -0.979422
 H        -0.389620        -0.168912         0.748430
 H         2.230269        -2.189200        -1.652088
 H         0.894797        -0.966414        -2.078121
 H         2.292240         0.860867        -1.517402
 H         4.879150         0.542668         0.807799
 H         4.245066        -2.586983         0.635912
 H         5.124747        -1.859352         1.841208
 H         3.132090        -0.361061         2.515178
