19
Iteration:     9
 C         0.320144         0.314639         0.229263
 C         1.473171        -0.624107        -0.159875
 C         1.597205        -1.229827        -1.542846
 C         2.605908        -0.147004        -1.191801
 O         3.940971        -0.615605        -0.943785
 C         4.156514        -0.323604         0.474566
 C         4.382075        -1.564123         1.339755
 C         3.097643        -0.755628         1.481406
 O         2.034715        -1.434445         0.866230
 H         0.526772         0.899840         1.045107
 H        -0.001719         1.083123        -0.714745
 H        -0.541999        -0.211285         0.517294
 H         1.862197        -2.301818        -1.428482
 H         0.791092        -1.085609        -2.240289
 H         2.351934         0.764953        -1.749737
 H         4.876468         0.425562         0.604448
 H         4.443296        -2.575047         0.809003
 H         5.199932        -1.229837         1.995051
 H         2.732763        -0.444253         2.554553
