19
Iteration:  2845
 C         0.271210         0.369958         0.056186
 C         1.431751        -0.593002        -0.145725
 C         1.633700        -1.281629        -1.455227
 C         2.565524        -0.203576        -1.092740
 O         3.843030        -0.574456        -0.857055
 C         4.173557        -0.351402         0.469428
 C         4.507914        -1.563140         1.212142
 C         3.139989        -0.855255         1.478162
 O         1.987426        -1.388408         0.892588
 H         0.118243         0.290152         1.104966
 H         0.803451         1.296016        -0.298679
 H        -0.581323         0.270028        -0.624202
 H         2.039120        -2.237445        -1.305807
 H         0.851860        -1.068729        -2.204814
 H         2.469845         0.831791        -1.507890
 H         4.739636         0.628767         0.714211
 H         4.675362        -2.540906         0.614177
 H         5.240530        -1.595263         2.078544
 H         3.105134        -0.164449         2.316412
