19
Iteration:   134charge 0 multiplicity 1
 C         0.348311         0.238893         0.174953
 C         1.461000        -0.587042        -0.192053
 C         1.625102        -1.282820        -1.551960
 C         2.544759        -0.181566        -1.217379
 O         3.834495        -0.497667        -0.814903
 C         4.193833        -0.389198         0.470100
 C         4.403832        -1.641906         1.269231
 C         3.155251        -0.770007         1.506577
 O         2.059160        -1.318669         0.877842
 H         0.721079         1.275742         0.586717
 H        -0.172711         0.481877        -0.739386
 H        -0.418447        -0.248255         0.887953
 H         1.962632        -2.351474        -1.569540
 H         0.885617        -1.104104        -2.330910
 H         2.441525         0.779537        -1.734099
 H         4.761866         0.544200         0.855025
 H         3.980512        -2.614578         0.970393
 H         5.224706        -1.602242         1.950849
 H         2.971300        -0.160828         2.322740
