19
Iteration:   681
 C         0.169605         0.167157         0.101139
 C         1.506595        -0.565113        -0.189011
 C         1.664160        -1.252449        -1.584083
 C         2.555482        -0.126056        -1.175685
 O         3.894774        -0.487560        -0.818293
 C         4.221430        -0.380330         0.487598
 C         4.468739        -1.740164         1.190443
 C         3.170690        -0.817661         1.462022
 O         1.950660        -1.199857         0.966408
 H         0.466623         0.800963         1.097072
 H        -0.128772         0.832325        -0.629344
 H        -0.719400        -0.530958         0.480193
 H         2.235415        -2.192472        -1.361600
 H         0.717978        -1.120310        -2.169263
 H         2.642890         0.842803        -1.684083
 H         4.966949         0.457157         0.756305
 H         4.503035        -2.817054         0.911443
 H         5.087073        -1.842863         2.124650
 H         3.058394        -0.272932         2.312859
