19
Iteration:  3021charge 0 multiplicity 1
 C         0.532950         0.351336         0.309236
 C         1.547117        -0.605868        -0.235376
 C         1.509762        -1.277119        -1.603381
 C         2.544991        -0.169874        -1.222385
 O         3.916469        -0.505460        -0.893752
 C         4.111728        -0.377249         0.493114
 C         4.322854        -1.559725         1.480135
 C         3.023019        -0.771244         1.433182
 O         2.086346        -1.517732         0.806582
 H         0.872342         1.334813         0.431365
 H        -0.267444         0.513749        -0.541718
 H         0.097745        -0.105487         1.178565
 H         1.696133        -2.389762        -1.978062
 H         0.693354        -0.934121        -2.281103
 H         2.285737         0.870969        -1.677477
 H         4.551214         0.526667         0.681115
 H         4.294111        -2.515170         0.985635
 H         5.121225        -1.292254         2.149331
 H         2.945180        -0.155747         2.310509
