19
Iteration:  3189
 C         0.292699         0.346310         0.171968
 C         1.471936        -0.619037        -0.207062
 C         1.523637        -1.260202        -1.534259
 C         2.524820        -0.202587        -1.134654
 O         3.902000        -0.507662        -0.860788
 C         4.238985        -0.287229         0.515301
 C         4.469750        -1.679494         1.310795
 C         3.171279        -0.809814         1.460138
 O         2.014360        -1.396321         0.847869
 H         0.589200         1.318701         0.558882
 H        -0.143779         0.574451        -0.739946
 H        -0.445279        -0.244069         0.721451
 H         1.883369        -2.292428        -1.559733
 H         0.740975        -0.911430        -2.223508
 H         2.448846         0.729834        -1.648094
 H         4.931741         0.548560         0.711035
 H         4.356410        -2.425775         0.537659
 H         5.212693        -1.751974         2.115488
 H         2.887999        -0.365340         2.467825
