19
Iteration:   466charge 0 multiplicity 1
 C         0.175807         0.235437         0.009376
 C         1.463480        -0.601493        -0.173213
 C         1.618798        -1.315695        -1.466240
 C         2.557588        -0.122692        -1.198208
 O         3.876394        -0.478107        -0.897811
 C         4.213156        -0.393191         0.501577
 C         4.525757        -1.738333         1.269607
 C         3.283940        -0.822671         1.483874
 O         1.890209        -1.222494         0.999894
 H         0.412523         0.570785         1.033781
 H         0.198253         1.192564        -0.778560
 H        -0.693976        -0.363855        -0.080081
 H         2.281846        -2.139675        -1.530248
 H         0.746648        -1.060761        -2.095346
 H         2.394182         0.865352        -1.544902
 H         4.755167         0.543112         0.786138
 H         4.613396        -2.540109         0.561591
 H         5.260026        -1.769964         2.056869
 H         3.138440        -0.406936         2.558737
