19
Iteration:   276
 C         0.400149         0.252556         0.250135
 C         1.471197        -0.523444        -0.233163
 C         1.483661        -1.282899        -1.614286
 C         2.524304        -0.203688        -1.193259
 O         3.875435        -0.603308        -0.833720
 C         4.210391        -0.329551         0.462315
 C         4.396728        -1.539319         1.402740
 C         3.134660        -0.750226         1.486944
 O         2.103035        -1.411544         0.789336
 H         0.513804         0.465740         1.376793
 H         0.379193         1.190529        -0.211359
 H        -0.624246        -0.223604         0.004664
 H         1.778270        -2.326556        -1.480170
 H         0.631913        -1.003243        -2.276340
 H         2.472792         0.718124        -1.831987
 H         4.946445         0.573252         0.608644
 H         4.260058        -2.583343         1.067675
 H         5.171803        -1.295382         2.166236
 H         2.804418        -0.189540         2.264239
