19
Iteration:  2250charge 0 multiplicity 1
 C         0.464923         0.243805         0.370580
 C         1.468439        -0.635330        -0.243422
 C         1.602393        -1.155300        -1.694324
 C         2.619591        -0.081923        -1.147697
 O         3.871941        -0.633061        -0.944630
 C         4.169306        -0.352737         0.479542
 C         4.329939        -1.530290         1.555522
 C         3.021596        -0.758706         1.339648
 O         2.033255        -1.470526         0.768169
 H         0.996216         1.011744         1.069979
 H        -0.157305         0.859547        -0.246747
 H        -0.129750        -0.391313         0.951357
 H         2.067895        -2.165388        -1.574502
 H         0.792463        -1.096155        -2.401125
 H         2.498550         0.902449        -1.543378
 H         4.830424         0.560460         0.642990
 H         4.274064        -2.560783         1.303443
 H         5.059115        -1.446273         2.317782
 H         2.609328        -0.203976         2.092254
