19
Iteration:  1275
 C         0.243080         0.197876         0.180828
 C         1.467781        -0.592490        -0.225091
 C         1.663167        -1.323894        -1.559298
 C         2.559961        -0.145840        -1.289978
 O         3.925178        -0.338641        -0.869541
 C         4.174911        -0.420061         0.565163
 C         4.496560        -1.767125         1.225827
 C         3.189942        -0.898341         1.504889
 O         1.879370        -1.165989         0.976073
 H         0.739912         0.933735         0.832938
 H        -0.208090         0.574434        -0.749291
 H        -0.462949        -0.283286         0.597073
 H         2.229849        -2.222842        -1.309821
 H         0.938526        -1.411512        -2.391984
 H         2.453176         0.864498        -1.572927
 H         4.923035         0.472463         0.827123
 H         4.099668        -2.669319         0.750201
 H         5.358187        -1.828875         1.884020
 H         2.946732        -0.370728         2.321176
