19
Iteration:  1234
 C         0.180732         0.183574         0.048496
 C         1.431564        -0.636044        -0.112314
 C         1.658843        -1.173521        -1.476523
 C         2.567851        -0.094577        -1.094038
 O         3.942972        -0.492259        -0.922888
 C         4.292771        -0.419348         0.487804
 C         4.388440        -1.721150         1.220080
 C         3.169736        -0.699910         1.490315
 O         1.995742        -1.327304         0.948749
 H         0.141804         0.998579         0.747245
 H        -0.012284         0.635943        -1.046184
 H        -0.688249        -0.630494         0.225080
 H         2.169888        -2.109896        -1.356793
 H         0.828041        -1.085568        -2.163680
 H         2.381471         0.839522        -1.494544
 H         4.919629         0.424237         0.830483
 H         3.994091        -2.528983         0.594703
 H         5.249733        -1.995438         1.824535
 H         3.160981        -0.124420         2.383977
