19
Iteration:  1215
 C         0.170779         0.194396         0.005142
 C         1.516204        -0.523779        -0.179121
 C         1.580934        -1.214754        -1.503749
 C         2.565229        -0.092811        -1.102505
 O         3.864861        -0.495776        -0.865081
 C         4.249222        -0.398781         0.437951
 C         4.502445        -1.676169         1.311534
 C         3.217684        -0.880518         1.455956
 O         1.980365        -1.340763         0.974365
 H         0.102714         0.893326         0.826684
 H         0.009025         0.904062        -0.760355
 H        -0.690696        -0.539090         0.253157
 H         1.987592        -2.216510        -1.659788
 H         0.857238        -0.909547        -2.243767
 H         2.432014         0.917843        -1.601058
 H         4.878840         0.384657         0.658640
 H         4.344118        -2.685607         0.936779
 H         5.238454        -1.523820         2.102007
 H         3.128494        -0.157724         2.360053
