19
Iteration:  4998
 C         0.349971         0.436862         0.065289
 C         1.469486        -0.550721        -0.191100
 C         1.588651        -1.288769        -1.547789
 C         2.573661        -0.197186        -1.171045
 O         3.902150        -0.483579        -0.882597
 C         4.200156        -0.447499         0.537797
 C         4.504820        -1.622390         1.231590
 C         3.153290        -0.937934         1.496788
 O         1.861278        -1.382479         0.987941
 H         0.202238         1.009687        -0.809151
 H        -0.539112        -0.006791         0.570716
 H         0.931593         1.147525         0.727906
 H         2.012837        -2.170291        -1.796526
 H         0.837664        -1.002899        -2.319473
 H         2.428363         0.799034        -1.558969
 H         4.749508         0.539769         0.798478
 H         4.659096        -2.509932         0.692341
 H         5.005543        -1.456003         2.142362
 H         2.851168        -0.632580         2.531009
