19
Iteration:   411
 C         0.291950         0.238607         0.166790
 C         1.519845        -0.564343        -0.247221
 C         1.601731        -1.410125        -1.560661
 C         2.521934        -0.114549        -1.174915
 O         3.895255        -0.395360        -0.859803
 C         4.241754        -0.397920         0.503174
 C         4.399317        -1.701904         1.253558
 C         3.228475        -0.787920         1.492977
 O         1.926820        -1.272353         0.955293
 H         0.634288         1.185567         0.682420
 H        -0.041848         0.764240        -0.876702
 H        -0.382635        -0.410568         0.673117
 H         1.954527        -2.411756        -1.468262
 H         0.863078        -1.453830        -2.345598
 H         2.434373         0.787396        -1.725323
 H         4.857590         0.443702         0.811462
 H         4.148730        -2.626408         0.813066
 H         5.209522        -1.835399         1.950575
 H         2.947758        -0.318592         2.475315
