19
Iteration:  4956
 C         0.205919         0.245977         0.179146
 C         1.519863        -0.574027        -0.193341
 C         1.603596        -1.222870        -1.518604
 C         2.581425        -0.108161        -1.184522
 O         3.934745        -0.591803        -0.869763
 C         4.363592        -0.498431         0.485296
 C         4.233170        -1.663482         1.282621
 C         3.145702        -0.715639         1.519952
 O         2.022740        -1.260813         0.827461
 H         0.008611         0.992516        -0.520452
 H        -0.506318        -0.540709         0.229546
 H         0.092548         0.735275         1.139422
 H         2.048514        -2.147717        -1.571917
 H         0.763035        -0.860674        -2.171646
 H         2.572642         0.866884        -1.573352
 H         5.285341         0.271713         0.637868
 H         3.970468        -2.590432         0.844745
 H         5.007770        -1.872196         1.982459
 H         3.041509        -0.196589         2.549943
