19
Iteration:  3955
 C         0.370926         0.428297         0.223176
 C         1.420947        -0.526185        -0.195426
 C         1.672770        -1.364766        -1.493137
 C         2.570483        -0.201115        -1.257403
 O         3.912121        -0.420095        -0.806587
 C         4.179308        -0.337786         0.517152
 C         4.428172        -1.682435         1.241253
 C         3.099885        -0.917565         1.410457
 O         1.913397        -1.405058         0.864668
 H        -0.185625         1.049469        -0.527083
 H        -0.348794        -0.084147         0.877684
 H         0.902961         1.207387         0.806087
 H         2.115525        -2.375574        -1.274032
 H         1.089307        -1.410307        -2.585545
 H         2.407191         0.805897        -1.759592
 H         4.750142         0.530513         0.839356
 H         4.516196        -2.532451         0.501923
 H         5.091062        -1.715688         2.168476
 H         2.977702        -0.479323         2.389206
