19
Iteration:  2755
 C         0.463530         0.238923         0.340973
 C         1.547377        -0.554271        -0.187137
 C         1.493125        -1.250502        -1.554085
 C         2.609166        -0.207821        -1.250866
 O         3.815782        -0.646785        -0.901109
 C         4.194347        -0.353225         0.448783
 C         4.379391        -1.488560         1.441622
 C         3.094517        -0.722808         1.447132
 O         2.047694        -1.435705         0.769963
 H        -0.355190        -0.376484         0.767530
 H         0.728230         1.167910         0.881122
 H        -0.143886         0.721342        -0.491228
 H         1.819760        -2.276962        -1.632151
 H         0.867515        -0.949864        -2.255501
 H         2.545267         0.703272        -1.790963
 H         4.762676         0.651516         0.425962
 H         4.274202        -2.504536         1.207593
 H         4.962422        -1.196802         2.282106
 H         2.787846         0.003787         2.181645
