19
Iteration:  3631charge 0 multiplicity 1
 C         0.260609         0.331747         0.117638
 C         1.513365        -0.612217        -0.213378
 C         1.521299        -1.182712        -1.608298
 C         2.545170        -0.166917        -1.153542
 O         3.833741        -0.521654        -0.801945
 C         4.286789        -0.414231         0.520346
 C         4.425887        -1.664957         1.287897
 C         3.206071        -0.838816         1.540196
 O         2.012951        -1.360535         0.865183
 H         0.091271         1.104839        -0.720825
 H        -0.667461        -0.223477         0.057089
 H         0.617956         0.712976         1.100040
 H         1.878139        -2.231857        -1.853654
 H         0.891056        -0.818998        -2.332736
 H         2.645848         0.849186        -1.428522
 H         4.872650         0.548651         0.731995
 H         4.326736        -2.696031         0.880968
 H         5.236468        -1.645108         1.977736
 H         2.887926        -0.336018         2.408853
