19
Iteration:  2220charge 0 multiplicity 1
 C         0.496665         0.354991         0.271786
 C         1.505149        -0.641915        -0.274525
 C         1.476375        -1.113871        -1.691114
 C         2.601642        -0.189304        -1.219047
 O         3.889571        -0.621124        -0.822354
 C         4.073457        -0.316438         0.555789
 C         4.464190        -1.469308         1.471812
 C         3.013393        -0.855776         1.448980
 O         2.072627        -1.561924         0.753753
 H         0.942592         1.183067         0.887625
 H        -0.212730         0.747559        -0.425471
 H        -0.064945        -0.093877         1.179406
 H         1.583180        -2.225202        -1.822820
 H         0.690661        -0.799856        -2.366874
 H         2.740070         0.757154        -1.730801
 H         4.593524         0.762468         0.814170
 H         4.383576        -2.424596         1.088530
 H         5.270941        -1.319008         2.129786
 H         2.549299        -0.319126         2.292362
