19
Iteration:  2914
 C         0.260820         0.300736         0.134509
 C         1.452117        -0.637693        -0.157425
 C         1.644579        -1.279320        -1.449952
 C         2.566485        -0.116579        -1.161218
 O         3.875077        -0.430556        -0.952792
 C         4.360858        -0.434394         0.487340
 C         4.281278        -1.676631         1.311671
 C         3.156467        -0.780854         1.429431
 O         2.028343        -1.358276         0.914495
 H         0.413048         0.748796         1.112557
 H         0.098675         0.966143        -0.706380
 H        -0.587935        -0.337534         0.150815
 H         2.165362        -2.330880        -1.232914
 H         0.835937        -1.211874        -2.262501
 H         2.355410         0.865729        -1.648596
 H         4.902318         0.419336         0.598707
 H         4.155992        -2.547138         0.745017
 H         4.909334        -1.809238         2.175736
 H         3.067921        -0.067923         2.266918
