19
Iteration:  3850charge 0 multiplicity 1
 C         0.256384         0.249971         0.177348
 C         1.511646        -0.546231        -0.199379
 C         1.509356        -1.111989        -1.624841
 C         2.661402        -0.139098        -1.165394
 O         3.854002        -0.725072        -0.817507
 C         4.234955        -0.349614         0.513633
 C         4.390094        -1.580675         1.294419
 C         3.164646        -0.813738         1.485357
 O         2.021753        -1.337243         0.868334
 H         0.056788         1.123424        -0.532728
 H        -0.501276        -0.645152         0.091723
 H         0.335211         0.277126         1.297844
 H         1.932498        -1.957236        -1.969756
 H         0.656945        -0.794794        -2.199778
 H         2.685589         0.873133        -1.477533
 H         4.777197         0.567609         0.646451
 H         4.464734        -2.527777         0.685799
 H         5.178662        -1.639803         2.150480
 H         3.098829        -0.212356         2.441231
