19
Iteration:   309charge 0 multiplicity 1
 C         0.406002         0.282980         0.325299
 C         1.479239        -0.618594        -0.232810
 C         1.545190        -1.139149        -1.588579
 C         2.595294        -0.193439        -1.167678
 O         3.914166        -0.716118        -0.844478
 C         4.120883        -0.294896         0.390999
 C         4.437853        -1.455478         1.432926
 C         3.099460        -0.806501         1.360542
 O         2.012296        -1.472417         0.819046
 H         0.733790         0.769278         1.336305
 H         0.284328         0.995428        -0.399249
 H        -0.635173        -0.216687         0.478255
 H         1.832071        -2.175943        -1.798741
 H         0.666251        -0.963672        -2.252019
 H         2.446446         0.820736        -1.600697
 H         4.644436         0.770639         0.489442
 H         4.645107        -2.516097         1.159041
 H         4.932755        -0.961264         2.302296
 H         2.861263        -0.244705         2.158212
