19
Iteration:   598charge 0 multiplicity 1
 C         0.418265         0.322664         0.323619
 C         1.499776        -0.631830        -0.237683
 C         1.530301        -1.165980        -1.585197
 C         2.620526        -0.193416        -1.241696
 O         3.880238        -0.646837        -0.845157
 C         4.106749        -0.275362         0.498843
 C         4.483424        -1.503566         1.414025
 C         3.021727        -0.848776         1.404062
 O         2.028412        -1.502818         0.795207
 H         0.884129         0.981467         1.020681
 H        -0.006313         1.111049        -0.456652
 H        -0.435082        -0.054360         0.777409
 H         1.855443        -2.223585        -1.676429
 H         0.919947        -1.009881        -2.484908
 H         2.611155         0.801754        -1.696589
 H         4.402428         0.816266         0.743267
 H         4.654688        -2.413029         0.808846
 H         5.228466        -1.094936         2.109698
 H         2.616722        -0.405914         2.458062
