19
Iteration:  1048
 C         0.240282         0.220428         0.097247
 C         1.453606        -0.643605        -0.192318
 C         1.544641        -1.225221        -1.540616
 C         2.527767        -0.093816        -1.179844
 O         3.852850        -0.474452        -0.822582
 C         4.313538        -0.434351         0.463831
 C         4.454859        -1.713940         1.383388
 C         3.207513        -0.833191         1.472005
 O         2.022924        -1.276556         0.909805
 H         0.355013         0.869368         0.871065
 H         0.060057         0.988206        -0.765086
 H        -0.724874        -0.430121         0.146193
 H         2.221114        -2.125246        -1.628070
 H         0.903405        -1.083132        -2.468481
 H         2.304364         0.823717        -1.676289
 H         4.854231         0.405440         0.630893
 H         4.326728        -2.669957         0.837783
 H         5.171621        -1.489504         2.217987
 H         3.049669        -0.014493         2.121284
