19
Iteration:  2390
 C         0.223590         0.257784         0.185433
 C         1.459928        -0.563994        -0.226169
 C         1.673753        -1.370215        -1.472441
 C         2.528909        -0.198158        -1.230254
 O         3.975142        -0.282579        -0.840968
 C         4.325602        -0.455490         0.522243
 C         4.336954        -1.785948         1.277702
 C         3.147576        -0.757597         1.471165
 O         1.953359        -1.303703         0.819574
 H         0.562037         1.247070         0.517779
 H        -0.499564         0.596561        -0.538850
 H        -0.260760        -0.227045         0.975993
 H         2.078594        -2.336132        -1.269633
 H         0.953416        -1.119225        -2.263157
 H         2.391810         0.730904        -1.765029
 H         4.874613         0.316120         0.819500
 H         4.234754        -2.717564         0.804367
 H         4.958731        -1.955332         2.132040
 H         2.937634        -0.089379         2.312575
