19
Iteration:  2907
 C         0.289483         0.236316         0.138789
 C         1.500214        -0.527535        -0.163176
 C         1.616302        -1.321020        -1.455503
 C         2.542342        -0.172139        -1.153296
 O         3.939401        -0.422972        -0.938462
 C         4.301353        -0.408737         0.490517
 C         4.311217        -1.694697         1.270734
 C         3.164704        -0.736275         1.450286
 O         1.976211        -1.376408         0.890755
 H         0.369414         0.817352         1.127759
 H         0.101039         1.182146        -0.427949
 H        -0.696554        -0.316666        -0.031731
 H         2.158536        -2.218272        -1.308581
 H         0.742190        -1.406734        -2.031110
 H         2.386046         0.815668        -1.513454
 H         5.118957         0.416378         0.665596
 H         4.012549        -2.605477         0.713910
 H         4.995890        -1.814769         2.097148
 H         2.898594        -0.014466         2.247856
