19
Iteration:  3701charge 0 multiplicity 1
 C         0.291438         0.291720         0.136332
 C         1.518158        -0.610124        -0.238119
 C         1.537411        -1.185278        -1.619873
 C         2.536573        -0.132979        -1.128947
 O         3.853892        -0.491477        -0.856641
 C         4.285563        -0.398716         0.532974
 C         4.371618        -1.743066         1.382649
 C         3.201553        -0.810404         1.442833
 O         2.037723        -1.343217         0.879290
 H         0.071812         0.814284        -0.749115
 H        -0.633289        -0.277096         0.314121
 H         0.690537         0.924255         0.896932
 H         1.955606        -2.152271        -1.909140
 H         0.570251        -1.011220        -2.248889
 H         2.406432         0.952445        -1.418913
 H         4.930087         0.519404         0.935719
 H         4.115297        -2.605171         0.770472
 H         5.105892        -1.923977         2.237437
 H         3.055987        -0.244885         2.434137
