19
Iteration:  3630
 C         0.263496         0.337605         0.117353
 C         1.510119        -0.618376        -0.219756
 C         1.520603        -1.179690        -1.605069
 C         2.534974        -0.169210        -1.161691
 O         3.837690        -0.517014        -0.802749
 C         4.280358        -0.412667         0.512499
 C         4.432803        -1.664768         1.295528
 C         3.208833        -0.848184         1.554720
 O         2.014215        -1.366185         0.870999
 H         0.095428         1.123788        -0.749166
 H        -0.645508        -0.228277         0.051924
 H         0.650674         0.758503         1.092157
 H         1.862805        -2.213394        -1.911365
 H         0.874563        -0.830606        -2.365536
 H         2.650527         0.865047        -1.433340
 H         4.818917         0.494432         0.765730
 H         4.338980        -2.652476         0.885537
 H         5.231780        -1.625221         1.974534
 H         2.915043        -0.325957         2.398436
