19
Iteration:  1487
 C         0.293115         0.355407         0.135985
 C         1.443179        -0.557514        -0.219414
 C         1.580191        -1.345479        -1.539381
 C         2.581583        -0.239956        -1.121034
 O         3.905868        -0.372762        -0.858399
 C         4.199194        -0.362641         0.575805
 C         4.578396        -1.682962         1.259866
 C         3.145202        -0.916919         1.467243
 O         1.913161        -1.329921         0.849375
 H         0.689651         0.992251         0.865187
 H        -0.140464         1.030906        -0.763227
 H        -0.676360        -0.198201         0.440748
 H         1.811918        -2.409055        -1.375739
 H         0.974561        -1.107652        -2.411422
 H         2.350995         0.681248        -1.737392
 H         4.754130         0.556857         0.883373
 H         4.302109        -2.599888         0.750116
 H         5.433325        -1.717053         1.938887
 H         2.984967        -0.408008         2.564645
