19
Iteration:  4326charge 0 multiplicity 1
 C         0.527196         0.398061         0.296958
 C         1.553762        -0.570266        -0.213003
 C         1.582405        -1.294556        -1.558319
 C         2.534369        -0.112941        -1.201135
 O         3.868314        -0.462615        -0.903285
 C         4.123502        -0.373584         0.455740
 C         4.333189        -1.574975         1.398437
 C         3.065301        -0.856985         1.468186
 O         1.986524        -1.542859         0.771051
 H         0.230737         1.189475        -0.456024
 H        -0.416791        -0.103069         0.728763
 H         0.940723         0.981239         1.087719
 H         2.158428        -2.182588        -1.613816
 H         0.877737        -1.271868        -2.411569
 H         2.356420         0.758624        -1.755216
 H         4.667610         0.402215         0.825564
 H         4.547954        -2.621162         1.085605
 H         5.016556        -1.413369         2.243105
 H         2.742188        -0.459001         2.330656
