19
Iteration:  1559
 C         0.158490         0.179231         0.019543
 C         1.430765        -0.607376        -0.157126
 C         1.670218        -1.213282        -1.592101
 C         2.514255        -0.070765        -1.116767
 O         3.921046        -0.467611        -0.870638
 C         4.274769        -0.416654         0.462553
 C         4.419462        -1.808324         1.308403
 C         3.260567        -0.828961         1.487063
 O         1.967050        -1.208850         0.997588
 H         0.463362         1.048342         0.727401
 H        -0.235968         0.654371        -0.888404
 H        -0.629918        -0.441009         0.377906
 H         2.157743        -2.225024        -1.724006
 H         0.853432        -0.821689        -2.254673
 H         2.343984         0.896719        -1.538884
 H         4.956174         0.517594         0.734829
 H         4.150478        -2.730125         0.732862
 H         5.147792        -1.925726         2.162868
 H         3.281696        -0.376840         2.424564
