19
Iteration:   693
 C         0.148941         0.200588         0.100580
 C         1.478844        -0.519340        -0.181211
 C         1.689264        -1.306862        -1.572573
 C         2.529142        -0.118458        -1.162568
 O         3.854153        -0.456029        -0.856263
 C         4.315356        -0.437181         0.522227
 C         4.415780        -1.715432         1.261456
 C         3.246480        -0.920703         1.475578
 O         1.977235        -1.169326         0.954034
 H         0.305887         1.109598         0.858531
 H        -0.290082         0.558013        -0.795622
 H        -0.596171        -0.557770         0.529488
 H         2.119877        -2.308405        -1.802350
 H         0.848105        -1.129549        -2.298532
 H         2.414558         0.855084        -1.658196
 H         4.845820         0.541083         0.828101
 H         4.285540        -2.603699         0.623776
 H         5.119582        -1.528136         2.102750
 H         3.200420        -0.540027         2.449308
