19
Iteration:  3338
 C         0.372402         0.278695         0.131252
 C         1.546101        -0.600557        -0.200550
 C         1.543300        -1.124254        -1.566648
 C         2.553082        -0.113556        -1.140814
 O         3.777433        -0.636057        -0.816279
 C         4.200179        -0.359022         0.507228
 C         4.498879        -1.581868         1.310494
 C         3.141664        -0.909816         1.487842
 O         1.998643        -1.368409         0.845486
 H         0.101290         0.572639        -0.864968
 H        -0.414333        -0.452479         0.599585
 H         0.530029         1.231367         0.671565
 H         1.829977        -2.220713        -1.868153
 H         0.759739        -0.694508        -2.206356
 H         2.662517         0.905935        -1.591693
 H         4.618825         0.571899         0.904197
 H         4.558208        -2.489130         0.715816
 H         5.162621        -1.456261         2.098088
 H         2.943719        -0.404783         2.450901
