19
Iteration:  2598
 C         0.203206         0.276436         0.127543
 C         1.446300        -0.613392        -0.222372
 C         1.569467        -1.292485        -1.591526
 C         2.587313        -0.138946        -1.149181
 O         3.866907        -0.574488        -0.854435
 C         4.259483        -0.355659         0.494274
 C         4.505297        -1.657259         1.325692
 C         3.217753        -0.745523         1.448624
 O         1.948252        -1.292487         0.966287
 H        -0.515176        -0.238794         0.885401
 H         0.674661         1.144275         0.630422
 H        -0.227169         0.401716        -0.872784
 H         1.914523        -2.413091        -1.775440
 H         0.773066        -1.016435        -2.385458
 H         2.485027         0.919119        -1.613543
 H         4.940819         0.416898         0.588464
 H         4.574375        -2.452353         0.529915
 H         5.126556        -1.752328         2.300725
 H         3.181376        -0.239832         2.450377
