19
Iteration:  1581
 C         0.173402         0.163186         0.064928
 C         1.516249        -0.460502        -0.146766
 C         1.600533        -1.163511        -1.516598
 C         2.649002        -0.047503        -1.119173
 O         3.924336        -0.552794        -0.890303
 C         4.269559        -0.431359         0.458356
 C         4.437810        -1.695034         1.291985
 C         3.128689        -0.841272         1.444165
 O         1.920701        -1.337455         0.950333
 H         0.213840         1.127181         0.714902
 H        -0.310969         0.484161        -0.890062
 H        -0.469252        -0.598268         0.434794
 H         2.133213        -2.160417        -1.440728
 H         0.738929        -1.098736        -2.256703
 H         2.570410         0.969984        -1.449059
 H         4.980944         0.461173         0.779163
 H         4.440542        -2.664390         0.750101
 H         5.278107        -1.687875         2.056410
 H         3.039791        -0.299955         2.339404
