19
Iteration:   795
 C         0.397988         0.309059         0.254818
 C         1.462190        -0.595449        -0.186701
 C         1.496455        -1.298867        -1.544300
 C         2.590773        -0.124835        -1.241467
 O         3.976136        -0.529966        -0.822211
 C         4.170753        -0.288440         0.506479
 C         4.419347        -1.512406         1.336538
 C         3.102202        -0.853333         1.418505
 O         2.015640        -1.508477         0.803611
 H         0.531742         0.956697         1.129417
 H         0.122519         1.112955        -0.564571
 H        -0.397887        -0.364011         0.409281
 H         1.771795        -2.346257        -1.533781
 H         0.716023        -1.174350        -2.235366
 H         2.629633         0.850563        -1.701151
 H         4.536749         0.806347         0.763011
 H         4.272632        -2.396795         0.750656
 H         5.028496        -1.660391         2.176848
 H         2.689667        -0.230874         2.293942
