19
Iteration:  2840charge 0 multiplicity 1
 C         0.267698         0.374465         0.018428
 C         1.479752        -0.579821        -0.095544
 C         1.652068        -1.252757        -1.472337
 C         2.541833        -0.187647        -1.118590
 O         3.839712        -0.591488        -0.859147
 C         4.147168        -0.334531         0.450449
 C         4.502744        -1.553756         1.248110
 C         3.160421        -0.855473         1.476464
 O         1.984745        -1.442178         0.905136
 H         0.193014         0.369338         1.172564
 H         0.711705         1.367801        -0.129492
 H        -0.588886         0.255255        -0.688345
 H         1.988190        -2.323351        -1.318024
 H         0.855106        -0.993755        -2.165072
 H         2.454830         0.778472        -1.574756
 H         4.754700         0.562045         0.520973
 H         4.549054        -2.408698         0.675682
 H         5.229592        -1.576209         2.003484
 H         3.075656        -0.251941         2.405637
