19
Iteration:   674
 C         0.229794         0.154246         0.136716
 C         1.470337        -0.573907        -0.240168
 C         1.653376        -1.231817        -1.523736
 C         2.574191        -0.085092        -1.172168
 O         3.917423        -0.516836        -0.845125
 C         4.193172        -0.393332         0.502638
 C         4.469880        -1.727089         1.227989
 C         3.187869        -0.778229         1.462189
 O         1.916506        -1.252983         0.970763
 H         0.338314         0.746005         1.024675
 H        -0.083595         0.991133        -0.598560
 H        -0.553372        -0.529682         0.235794
 H         2.081954        -2.226364        -1.453459
 H         0.891872        -1.211440        -2.308888
 H         2.432735         0.845499        -1.717353
 H         4.994442         0.454573         0.664041
 H         4.331375        -2.648772         0.625081
 H         5.188079        -1.731625         2.050711
 H         3.129859        -0.170780         2.469011
