19
Iteration:  3296
 C         0.384212         0.260590         0.328024
 C         1.498964        -0.575066        -0.178187
 C         1.645209        -1.180534        -1.621242
 C         2.568600        -0.153427        -1.156036
 O         3.865969        -0.595611        -0.899958
 C         4.197871        -0.429696         0.415651
 C         4.378234        -1.542836         1.442844
 C         3.080242        -0.773782         1.411903
 O         2.001194        -1.439401         0.775729
 H         0.417456         1.362667         0.148275
 H        -0.766785        -0.146207         0.170505
 H         0.495922         0.472052         1.433361
 H         1.971449        -2.278221        -1.763826
 H         0.921548        -0.857954        -2.365907
 H         2.394458         0.825299        -1.599196
 H         4.865346         0.350801         0.528672
 H         4.397562        -2.595466         1.125555
 H         5.099638        -1.298480         2.174231
 H         2.728863         0.028154         2.132592
