19
Iteration:  4893charge 0 multiplicity 1
 C         0.350005         0.397728         0.106025
 C         1.434522        -0.595282        -0.192302
 C         1.593814        -1.122168        -1.592847
 C         2.597053        -0.137652        -1.127839
 O         3.819538        -0.694576        -0.797420
 C         4.202783        -0.399842         0.480476
 C         4.451989        -1.600554         1.336471
 C         3.154557        -0.813268         1.483325
 O         2.050498        -1.440328         0.858933
 H        -0.133274         0.717164        -0.888513
 H        -0.570059        -0.206698         0.474203
 H         0.512508         1.184249         0.891759
 H         1.924669        -2.125061        -1.691937
 H         0.854738        -0.807672        -2.445978
 H         2.578987         0.907635        -1.384390
 H         4.618532         0.613670         0.655912
 H         4.216225        -2.498452         0.762959
 H         5.221844        -1.636928         2.125457
 H         2.881597        -0.173837         2.319641
