19
Iteration:  2046
 C         0.360289         0.324013         0.029620
 C         1.498360        -0.558167        -0.189998
 C         1.650275        -1.300857        -1.526190
 C         2.541765        -0.093605        -1.127017
 O         3.841467        -0.433084        -0.826788
 C         4.193483        -0.357433         0.502054
 C         4.485670        -1.692434         1.224277
 C         3.167803        -0.905808         1.527045
 O         1.895823        -1.388826         0.927886
 H         0.711674         1.263253         0.365935
 H        -0.193630         0.520970        -0.825600
 H        -0.450978        -0.139480         0.651333
 H         2.192905        -2.257810        -1.525624
 H         0.834134        -1.270851        -2.290743
 H         2.539139         0.925391        -1.503305
 H         4.800880         0.407545         0.697523
 H         4.310163        -2.485926         0.552126
 H         5.029341        -1.723554         2.098150
 H         3.093692        -0.500981         2.608713
