19
Iteration:   724
 C         0.223507         0.230828         0.039882
 C         1.524030        -0.599768        -0.138863
 C         1.678432        -1.267008        -1.470937
 C         2.583729        -0.102206        -1.115712
 O         3.924983        -0.443258        -0.847943
 C         4.242856        -0.412501         0.487192
 C         4.354259        -1.649805         1.141982
 C         3.171628        -0.839561         1.449443
 O         1.961283        -1.330762         0.984712
 H         0.295231         1.396908         0.244836
 H        -0.283112         0.344414        -0.853042
 H        -0.496969        -0.250688         0.847515
 H         2.190515        -2.255213        -1.640575
 H         0.720800        -1.123677        -2.077408
 H         2.338079         0.915115        -1.497802
 H         4.731830         0.457215         0.853656
 H         4.086910        -2.649828         0.724951
 H         5.203800        -1.847194         1.870258
 H         3.135921        -0.344583         2.347620
