19
Iteration:  1795
 C         0.216849         0.200787         0.069610
 C         1.505520        -0.527776        -0.155577
 C         1.744640        -1.279352        -1.438832
 C         2.651798        -0.110986        -1.214169
 O         3.951956        -0.413835        -0.934008
 C         4.191933        -0.390873         0.523335
 C         4.431632        -1.757684         1.121336
 C         3.143502        -0.908059         1.480337
 O         1.798358        -1.208535         1.079774
 H         0.329662         0.937499         0.810258
 H        -0.134419         0.749403        -0.757343
 H        -0.750472        -0.515604         0.293190
 H         2.364804        -2.151608        -1.205748
 H         0.883963        -1.383717        -2.180955
 H         2.548758         0.917157        -1.688107
 H         4.884122         0.366677         0.624601
 H         4.272248        -2.596198         0.367819
 H         5.224190        -1.967081         1.886339
 H         3.177997        -0.525435         2.609921
