19
Iteration:  4647charge 0 multiplicity 1
 C         0.473530         0.396377         0.090521
 C         1.469635        -0.590889        -0.231660
 C         1.509725        -1.314871        -1.528316
 C         2.622925        -0.149762        -1.219173
 O         3.884670        -0.493770        -0.846567
 C         4.116109        -0.317305         0.579633
 C         4.496549        -1.599735         1.240638
 C         3.167457        -1.011959         1.491944
 O         1.909526        -1.360937         0.937484
 H         0.122815         0.909495        -0.752567
 H        -0.328068        -0.088172         0.585321
 H         0.788011         1.148734         0.887685
 H         1.759050        -2.410270        -1.393047
 H         0.710736        -1.161953        -2.178387
 H         2.351138         0.753568        -1.793505
 H         4.442851         0.776827         0.900457
 H         4.404380        -2.294488         0.399479
 H         5.216582        -1.753076         2.054608
 H         2.993618        -0.575594         2.473155
