19
Iteration:  4484charge 0 multiplicity 1
 C         0.411979         0.477109         0.200850
 C         1.490059        -0.645580        -0.220321
 C         1.581894        -1.335412        -1.627711
 C         2.539793        -0.234241        -1.110089
 O         3.926537        -0.447387        -0.856497
 C         4.188337        -0.290149         0.536283
 C         4.507753        -1.625151         1.216835
 C         3.118553        -0.927341         1.437053
 O         1.832460        -1.465107         0.923219
 H         0.148960         0.956635        -0.726194
 H        -0.455339         0.068630         0.731176
 H         0.884973         1.366428         0.872740
 H         2.004887        -2.248132        -1.378209
 H         0.824055        -1.127975        -2.351425
 H         2.453460         0.798372        -1.487819
 H         4.574498         0.758377         0.850227
 H         4.576636        -2.461583         0.524782
 H         5.171212        -1.588976         2.044597
 H         3.045762        -0.387365         2.376404
