19
Iteration:  3357
 C         0.172457         0.376486         0.124614
 C         1.472967        -0.458169        -0.232548
 C         1.600833        -1.196022        -1.558064
 C         2.557504        -0.124574        -1.199282
 O         3.881512        -0.579295        -0.808533
 C         4.156127        -0.343373         0.541157
 C         4.566273        -1.660419         1.284200
 C         3.160739        -0.968575         1.528931
 O         1.991923        -1.427933         0.849784
 H        -0.450877         0.516425        -0.780794
 H        -0.238829        -0.130409         0.905864
 H         0.595943         1.240080         0.607217
 H         2.054850        -2.235742        -1.407245
 H         0.855574        -1.153342        -2.378610
 H         2.628339         0.904329        -1.682303
 H         4.872145         0.650489         0.659894
 H         4.584313        -2.575008         0.688612
 H         5.284046        -1.543065         2.106812
 H         3.031979        -0.491717         2.472552
