19
Iteration:  3632charge 0 multiplicity 1
 C         0.259421         0.325721         0.116990
 C         1.514746        -0.605081        -0.206662
 C         1.524389        -1.187689        -1.610896
 C         2.556115        -0.164166        -1.144489
 O         3.830976        -0.527320        -0.801586
 C         4.292248        -0.414485         0.528349
 C         4.419020        -1.666062         1.280324
 C         3.202744        -0.829818         1.523270
 O         2.011715        -1.355105         0.859468
 H         0.094311         1.080092        -0.678895
 H        -0.693000        -0.223308         0.070460
 H         0.572815         0.670687         1.104728
 H         1.891874        -2.239609        -1.788727
 H         0.888678        -0.798108        -2.313349
 H         2.631410         0.846132        -1.433918
 H         4.923776         0.590325         0.695556
 H         4.312106        -2.732422         0.873701
 H         5.246637        -1.664366         1.991223
 H         2.862392        -0.339243         2.432515
