19
Iteration:  3643
 C         0.263390         0.239047         0.149578
 C         1.460985        -0.529667        -0.196509
 C         1.600168        -1.186905        -1.574263
 C         2.583061        -0.099672        -1.095678
 O         3.878111        -0.601048        -0.814214
 C         4.278040        -0.382046         0.528403
 C         4.401913        -1.700564         1.276629
 C         3.156539        -0.776623         1.422105
 O         2.008113        -1.332820         0.833948
 H         0.209877         1.156759        -0.446682
 H        -0.648472        -0.384447         0.094432
 H         0.194786         0.664427         1.156638
 H         1.898392        -2.243786        -1.490564
 H         0.829885        -0.948930        -2.250485
 H         2.440184         0.805443        -1.618177
 H         5.132538         0.411617         0.638628
 H         4.157135        -2.607025         0.624942
 H         5.067723        -1.761771         2.146555
 H         3.050907        -0.338541         2.424954
