19
Iteration:  2155
 C         0.364846         0.294659         0.130908
 C         1.484432        -0.623446        -0.207117
 C         1.644915        -1.283826        -1.614241
 C         2.563109        -0.107871        -1.141586
 O         3.908472        -0.462622        -0.882274
 C         4.180436        -0.332248         0.553780
 C         4.381147        -1.670322         1.274019
 C         3.134675        -0.873232         1.454610
 O         1.952387        -1.358205         0.956149
 H         0.545717         0.778741         1.105993
 H         0.283623         1.057077        -0.605893
 H        -0.601005        -0.357370         0.166003
 H         2.082919        -2.312837        -1.684675
 H         0.831011        -1.019551        -2.295959
 H         2.360187         0.820897        -1.655856
 H         4.845312         0.525191         0.907781
 H         4.235008        -2.613796         0.818328
 H         5.156134        -1.677289         1.964074
 H         2.883894        -0.336761         2.414743
