19
Iteration:   326charge 0 multiplicity 1
 C         0.478075         0.298694         0.249910
 C         1.459565        -0.619510        -0.204383
 C         1.492177        -1.201587        -1.691326
 C         2.566507        -0.165924        -1.179037
 O         3.793529        -0.693394        -0.909831
 C         4.205259        -0.342404         0.493553
 C         4.571776        -1.392987         1.470045
 C         3.122682        -0.852432         1.478397
 O         1.935731        -1.463600         0.814822
 H         0.880558         0.806253         1.055859
 H        -0.133184         1.036079        -0.475411
 H        -0.249122        -0.331212         0.677845
 H         1.856366        -2.221691        -1.841069
 H         0.783590        -0.780853        -2.460774
 H         2.665484         0.891076        -1.469820
 H         4.646459         0.583507         0.658636
 H         4.726076        -2.331586         0.954748
 H         5.162771        -1.108439         2.325702
 H         2.674900        -0.157506         2.402131
