19
Iteration:  2852charge 0 multiplicity 1
 C         0.331429         0.368612         0.100167
 C         1.402289        -0.627173        -0.228472
 C         1.570009        -1.329071        -1.470042
 C         2.549467        -0.172648        -1.087373
 O         3.882698        -0.558855        -0.851300
 C         4.233916        -0.347963         0.517262
 C         4.524193        -1.612977         1.209273
 C         3.162112        -0.857474         1.440412
 O         1.969578        -1.317643         0.903747
 H        -0.205035         0.415469         1.132295
 H         0.611946         1.389289        -0.245586
 H        -0.641484         0.078310        -0.438558
 H         2.096871        -2.297587        -1.446980
 H         0.918233        -1.302015        -2.279820
 H         2.455074         0.793547        -1.511405
 H         4.620360         0.654102         0.872743
 H         4.527104        -2.483854         0.625739
 H         5.157157        -1.467302         2.051220
 H         2.982218        -0.241612         2.347348
