19
Iteration:   823
 C         0.447705         0.299450         0.244052
 C         1.425383        -0.651304        -0.186433
 C         1.601896        -1.171885        -1.690483
 C         2.525073        -0.159160        -1.172496
 O         3.822804        -0.642726        -0.864385
 C         4.149161        -0.328452         0.448883
 C         4.462753        -1.421292         1.422902
 C         3.121053        -0.844124         1.482337
 O         2.054339        -1.484415         0.804097
 H         0.485565         0.462978         1.393359
 H         0.423760         1.180282        -0.360779
 H        -0.582358        -0.143629         0.208623
 H         1.751309        -2.261386        -1.701267
 H         0.858115        -0.809223        -2.440580
 H         2.523485         0.916794        -1.413904
 H         4.608388         0.673895         0.543109
 H         4.631605        -2.491144         1.191420
 H         5.128356        -1.238566         2.298346
 H         2.780809        -0.370873         2.373398
