19
Iteration:  4067charge 0 multiplicity 1
 C         0.356894         0.246133         0.309545
 C         1.550077        -0.556097        -0.264745
 C         1.431656        -1.129274        -1.602732
 C         2.632884        -0.167117        -1.200710
 O         3.936333        -0.644147        -0.869480
 C         4.181518        -0.365919         0.516678
 C         4.328334        -1.595511         1.376790
 C         3.077293        -0.761291         1.449783
 O         2.088977        -1.391586         0.792016
 H        -0.105496         0.823060        -0.499007
 H        -0.217096        -0.552654         0.520570
 H         0.552545         0.861048         1.215040
 H         1.854538        -2.191968        -1.540994
 H         0.646250        -0.630843        -2.196460
 H         2.803346         0.725037        -1.728207
 H         4.811851         0.505710         0.639129
 H         4.309782        -2.639493         0.922463
 H         5.073626        -1.526376         2.244112
 H         2.605540        -0.282048         2.360558
