19
Iteration:  4548charge 0 multiplicity 1
 C         0.262813         0.267209         0.366784
 C         1.392161        -0.528797        -0.162053
 C         1.609785        -1.168124        -1.641393
 C         2.696661        -0.136401        -1.187827
 O         3.911568        -0.691545        -0.880291
 C         4.265487        -0.411460         0.442630
 C         4.413575        -1.612407         1.439132
 C         3.118958        -0.756532         1.360725
 O         1.988209        -1.372327         0.771625
 H        -0.092380         1.009561        -0.289327
 H        -0.540387        -0.383786         0.552894
 H         0.520242         0.803571         1.310759
 H         1.795685        -2.189803        -1.811653
 H         0.675563        -0.894176        -2.238901
 H         2.527806         0.898957        -1.565238
 H         4.812727         0.616510         0.543578
 H         4.430387        -2.656537         1.190496
 H         5.028699        -1.325182         2.246602
 H         2.776609        -0.133206         2.095427
