19
Iteration:  1928
 C         0.326472         0.273224         0.157974
 C         1.512127        -0.583968        -0.193513
 C         1.482253        -1.080187        -1.618962
 C         2.579242        -0.087473        -1.202850
 O         3.888639        -0.737115        -0.848679
 C         4.206043        -0.296517         0.462389
 C         4.439170        -1.519599         1.479390
 C         3.164429        -0.811022         1.474547
 O         2.041424        -1.546007         0.841675
 H         0.555292         0.855302         0.966622
 H         0.126092         0.931795        -0.628047
 H        -0.635026        -0.342207         0.306420
 H         1.661564        -2.112986        -2.059256
 H         0.639711        -0.637149        -2.190530
 H         2.409962         0.938317        -1.466760
 H         4.707368         0.604867         0.492852
 H         4.663270        -2.376505         0.915299
 H         5.000620        -1.264171         2.347515
 H         2.917633        -0.242517         2.440112
