19
Iteration:  1909charge 0 multiplicity 1
 C         0.357653         0.246158         0.200540
 C         1.486932        -0.584155        -0.214847
 C         1.578243        -1.146154        -1.605760
 C         2.590196        -0.189769        -1.164032
 O         3.845964        -0.619232        -0.846571
 C         4.161557        -0.370456         0.548260
 C         4.477419        -1.570357         1.313623
 C         3.096945        -0.807970         1.501740
 O         2.028633        -1.365865         0.823455
 H         0.656458         0.913904         1.056882
 H        -0.059220         0.793171        -0.717186
 H        -0.378157        -0.451877         0.340978
 H         1.832799        -2.179920        -1.750541
 H         0.824084        -0.889950        -2.330959
 H         2.539761         0.831575        -1.564546
 H         4.682793         0.632727         0.884452
 H         4.156231        -2.516301         0.938282
 H         5.284963        -1.527622         1.991727
 H         2.920019        -0.202326         2.286064
