19
Iteration:  2539charge 0 multiplicity 1
 C         0.426736         0.380989         0.277545
 C         1.478463        -0.626637        -0.209552
 C         1.559132        -1.315209        -1.629160
 C         2.498926        -0.198446        -1.128340
 O         3.865336        -0.579828        -0.880260
 C         4.213439        -0.333533         0.472406
 C         4.425914        -1.518942         1.419898
 C         3.126783        -0.751019         1.470389
 O         1.983849        -1.505410         0.762288
 H         0.199461         0.330954         1.297663
 H         0.724209         1.416642         0.030675
 H        -0.522194         0.395744        -0.290536
 H         1.960346        -2.251159        -1.572394
 H         0.921603        -0.998979        -2.427269
 H         2.534470         0.692958        -1.695521
 H         4.718545         0.661231         0.680926
 H         4.596040        -2.449112         0.946726
 H         5.108889        -1.313975         2.197684
 H         2.854691        -0.205174         2.356783
