19
Iteration:  2468charge 0 multiplicity 1
 C         0.307703         0.366990         0.233916
 C         1.430284        -0.628169        -0.226082
 C         1.563605        -1.181924        -1.634207
 C         2.569326        -0.121276        -1.138450
 O         3.834789        -0.712071        -0.827295
 C         4.182903        -0.323981         0.474896
 C         4.549549        -1.490903         1.465372
 C         3.122704        -0.851695         1.386481
 O         2.017937        -1.468224         0.827699
 H         0.485503         0.848852         1.252069
 H         0.173191         1.039991        -0.568762
 H        -0.704823         0.037718         0.214103
 H         1.967636        -2.241331        -1.751610
 H         0.901143        -0.790448        -2.456501
 H         2.725393         0.760777        -1.761344
 H         4.752154         0.557724         0.654181
 H         4.678047        -2.365588         0.803006
 H         5.251253        -1.329331         2.281107
 H         2.849908        -0.301380         2.305239
