19
Iteration:  4938charge 0 multiplicity 1
 C         0.194770         0.136346         0.178265
 C         1.486100        -0.493176        -0.207273
 C         1.578310        -1.128196        -1.647186
 C         2.636619        -0.137088        -1.161251
 O         3.959008        -0.597555        -0.922847
 C         4.257988        -0.499459         0.467252
 C         4.341095        -1.743332         1.407049
 C         3.195412        -0.686409         1.444349
 O         1.978302        -1.251587         0.955704
 H        -0.262387         1.019168        -0.418586
 H        -0.734118        -0.480565         0.338216
 H         0.393769         0.525757         1.192479
 H         1.868969        -2.186974        -1.611464
 H         0.953775        -0.735094        -2.534282
 H         2.651910         0.842327        -1.684920
 H         4.958965         0.267541         0.654864
 H         3.938465        -2.707310         1.027751
 H         5.146837        -1.815383         2.209137
 H         3.246956         0.048406         2.245027
