19
Iteration:   817
 C         0.404997         0.284732         0.234234
 C         1.473056        -0.656575        -0.198475
 C         1.587636        -1.167118        -1.619237
 C         2.552187        -0.209172        -1.142357
 O         3.832978        -0.621430        -0.894890
 C         4.140190        -0.330572         0.479893
 C         4.461634        -1.452317         1.414578
 C         3.090701        -0.829131         1.467017
 O         2.049343        -1.470762         0.777793
 H         0.687122         0.596654         1.254467
 H         0.454091         1.335412        -0.261081
 H        -0.572342        -0.157119         0.229924
 H         1.831313        -2.210154        -1.696311
 H         0.910701        -0.824381        -2.353473
 H         2.441193         0.835992        -1.423524
 H         4.641104         0.708878         0.588435
 H         4.572283        -2.430205         0.984191
 H         5.109661        -1.113454         2.189897
 H         2.721279        -0.383624         2.445555
