19
Iteration:  4165charge 0 multiplicity 1
 C         0.244710         0.353501         0.186802
 C         1.427816        -0.509389        -0.223099
 C         1.612620        -1.269440        -1.542217
 C         2.528779        -0.162309        -1.179183
 O         3.880426        -0.496148        -0.834889
 C         4.272521        -0.407867         0.557282
 C         4.431394        -1.662711         1.324739
 C         3.167909        -0.861989         1.446616
 O         2.003942        -1.383440         0.799745
 H         0.021425         1.149107        -0.538777
 H        -0.564690        -0.229045         0.319668
 H         0.567302         0.892036         1.082959
 H         2.069418        -2.241947        -1.263533
 H         1.019110        -0.935593        -2.396441
 H         2.578872         0.673012        -1.827840
 H         4.945390         0.441134         0.789852
 H         4.257815        -2.507311         0.654358
 H         5.243916        -1.826691         2.127977
 H         2.919083        -0.524260         2.480115
