19
Iteration:  3865charge 0 multiplicity 1
 C         0.288719         0.150031         0.151238
 C         1.546664        -0.468528        -0.185237
 C         1.624502        -1.104675        -1.504837
 C         2.563236        -0.063871        -1.119806
 O         3.826351        -0.724883        -0.809952
 C         4.208958        -0.371481         0.488722
 C         4.473553        -1.639139         1.280422
 C         3.157406        -0.811586         1.436957
 O         1.977549        -1.329674         0.834510
 H         0.037611         0.934679        -0.558040
 H        -0.640767        -0.423032         0.034407
 H         0.269574         0.667515         1.082250
 H         1.773482        -2.276006        -1.431482
 H         0.958823        -0.806531        -2.323019
 H         2.755281         0.891793        -1.661692
 H         4.833947         0.630399         0.537625
 H         4.246737        -2.474046         0.662576
 H         5.105152        -1.670781         2.065402
 H         2.882563        -0.319983         2.352435
