19
Iteration:  1874
 C         0.333476         0.321231         0.196224
 C         1.441171        -0.546875        -0.213006
 C         1.725387        -1.343317        -1.515799
 C         2.529642        -0.186643        -1.211715
 O         3.958293        -0.350077        -0.900399
 C         4.274965        -0.373207         0.530224
 C         4.351911        -1.715872         1.228065
 C         3.137268        -0.877012         1.433708
 O         1.892322        -1.339051         0.928956
 H         0.437133         1.091118         0.899239
 H        -0.119173         0.725152        -0.686211
 H        -0.369259        -0.328660         0.750984
 H         2.247237        -2.302840        -1.197066
 H         1.030851        -1.409886        -2.391258
 H         2.152954         0.727946        -1.580946
 H         4.777215         0.513605         0.885444
 H         4.139578        -2.639290         0.778041
 H         5.009458        -1.802803         2.073001
 H         2.999673        -0.306141         2.354481
