19
Iteration:  3458charge 0 multiplicity 1
 C         0.158402         0.318225         0.101772
 C         1.454547        -0.584746        -0.144823
 C         1.594220        -1.159322        -1.472362
 C         2.626597        -0.168521        -1.161750
 O         3.978735        -0.559217        -0.890827
 C         4.201756        -0.335653         0.545080
 C         4.454462        -1.655203         1.254248
 C         3.184342        -0.909007         1.414388
 O         1.943935        -1.361963         0.915661
 H         0.207223         1.128160        -0.540771
 H        -0.707997        -0.335467        -0.018193
 H         0.233861         0.729186         1.065081
 H         1.956506        -2.174865        -1.441771
 H         0.877760        -1.043856        -2.341438
 H         2.505502         0.786726        -1.662883
 H         4.838094         0.611253         0.731300
 H         4.369823        -2.527846         0.663042
 H         5.148170        -1.649639         2.096724
 H         3.156859        -0.282553         2.334973
