19
Iteration:  4881charge 0 multiplicity 1
 C         0.338957         0.437678         0.169328
 C         1.513263        -0.610153        -0.133307
 C         1.588279        -1.210186        -1.650416
 C         2.547304        -0.183929        -1.133891
 O         3.854081        -0.658953        -0.803359
 C         4.198962        -0.297102         0.559222
 C         4.443731        -1.578272         1.343004
 C         3.123949        -0.868908         1.433817
 O         1.983054        -1.478515         0.819846
 H         0.168216         0.918360        -0.847332
 H        -0.564199         0.054684         0.705318
 H         0.786383         1.411926         0.622556
 H         1.877988        -2.211044        -1.980787
 H         0.740812        -0.710879        -2.186333
 H         2.599270         0.693159        -1.711232
 H         4.808597         0.693429         0.684621
 H         4.486371        -2.435549         0.681881
 H         5.171015        -1.665024         2.119255
 H         2.914387        -0.259608         2.320437
