19
Iteration:  3423charge 0 multiplicity 1
 C         0.369254         0.289616         0.149134
 C         1.480944        -0.606275        -0.195452
 C         1.660805        -1.306233        -1.570169
 C         2.503258        -0.143847        -1.219732
 O         3.858452        -0.344290        -0.875889
 C         4.156221        -0.387085         0.516095
 C         4.321090        -1.771913         1.293308
 C         3.221997        -0.846887         1.489600
 O         2.015756        -1.333465         0.924576
 H        -0.061230         0.833947        -0.728998
 H        -0.521900        -0.003736         0.565601
 H         0.777409         1.038386         0.856742
 H         2.332588        -2.260781        -1.448112
 H         0.867646        -1.214558        -2.329543
 H         2.321991         0.843116        -1.766319
 H         5.034569         0.318125         0.957343
 H         4.105245        -2.729771         0.816670
 H         5.007079        -1.815575         2.078747
 H         3.024042        -0.314617         2.384334
