19
Iteration:  1655charge 0 multiplicity 1
 C         0.518393         0.433784         0.333149
 C         1.553462        -0.618549        -0.160707
 C         1.532689        -1.190837        -1.654608
 C         2.572567        -0.171546        -1.204143
 O         3.965469        -0.568519        -0.913711
 C         4.012854        -0.333040         0.485235
 C         4.413510        -1.445295         1.469132
 C         3.018526        -0.887205         1.449525
 O         2.016520        -1.634341         0.699298
 H         0.778697         1.028467         1.281778
 H         0.269934         1.133553        -0.403946
 H        -0.400631        -0.168348         0.506079
 H         1.885719        -2.278886        -1.529740
 H         0.668089        -0.984646        -2.371473
 H         2.351489         0.868213        -1.447442
 H         4.337185         0.551356         0.895246
 H         4.624545        -2.436180         0.991380
 H         5.123845        -1.116608         2.303627
 H         2.628837        -0.239471         2.301023
