19
Iteration:  4646
 C         0.474270         0.391669         0.094807
 C         1.465750        -0.593378        -0.233810
 C         1.511450        -1.306995        -1.522230
 C         2.625654        -0.152160        -1.215927
 O         3.884183        -0.496153        -0.850946
 C         4.121366        -0.318892         0.580988
 C         4.503088        -1.599295         1.239901
 C         3.160514        -1.007934         1.486257
 O         1.910651        -1.364698         0.945283
 H         0.099130         0.933862        -0.724705
 H        -0.359885        -0.062393         0.554168
 H         0.771126         1.162029         0.833999
 H         1.774006        -2.396077        -1.421333
 H         0.692674        -1.142930        -2.207677
 H         2.370330         0.754429        -1.796943
 H         4.402941         0.748230         0.904550
 H         4.432771        -2.300870         0.429762
 H         5.210492        -1.747702         2.054895
 H         2.983962        -0.559793         2.425930
