19
Iteration:  1395
 C         0.340758         0.180244         0.331042
 C         1.551403        -0.539457        -0.249154
 C         1.460176        -1.109061        -1.637009
 C         2.591294        -0.147649        -1.206524
 O         3.848571        -0.705701        -0.828020
 C         4.152443        -0.403526         0.506177
 C         4.421956        -1.515465         1.464377
 C         3.092971        -0.752952         1.420928
 O         2.149450        -1.418660         0.729829
 H         0.665216         0.835625         1.230417
 H        -0.073096         0.932335        -0.401622
 H        -0.475695        -0.511747         0.472907
 H         1.820761        -2.132861        -1.723623
 H         0.717418        -0.652330        -2.294130
 H         2.694553         0.738163        -1.766561
 H         4.654036         0.652491         0.680271
 H         4.324946        -2.574043         1.193352
 H         5.121751        -1.131701         2.224634
 H         2.694441        -0.148678         2.111614
