19
Iteration:  1822
 C         0.241446         0.294591        -0.033423
 C         1.427081        -0.571776        -0.178123
 C         1.692622        -1.388157        -1.488100
 C         2.522602        -0.154848        -1.047303
 O         3.873709        -0.294083        -0.863119
 C         4.253965        -0.390883         0.547984
 C         4.424757        -1.811508         1.168365
 C         3.242850        -0.942828         1.475044
 O         1.927491        -1.209141         1.009782
 H         0.414404         1.245735         0.667150
 H        -0.018231         0.753263        -1.089030
 H        -0.639389        -0.158489         0.386666
 H         2.231058        -2.309811        -1.252895
 H         1.007121        -1.317046        -2.295162
 H         2.273542         0.670373        -1.688973
 H         4.974826         0.497606         0.714424
 H         4.337025        -2.466633         0.343319
 H         5.157915        -2.169629         1.863828
 H         3.214695        -0.523985         2.400473
