19
Iteration:   782charge 0 multiplicity 1
 C         0.352341         0.288541         0.228676
 C         1.514797        -0.574194        -0.241619
 C         1.570791        -1.259906        -1.561498
 C         2.560839        -0.265670        -1.209181
 O         3.905033        -0.445386        -0.882104
 C         4.189088        -0.288338         0.543719
 C         4.398025        -1.595562         1.331301
 C         3.115015        -0.868503         1.485392
 O         2.006120        -1.420435         0.807615
 H         0.825515         0.978522         1.045873
 H        -0.103630         0.825087        -0.684185
 H        -0.467317        -0.210658         0.712264
 H         1.776217        -2.273403        -1.277423
 H         0.933136        -0.988845        -2.370506
 H         2.315175         0.650035        -1.709443
 H         4.737024         0.744535         0.848873
 H         4.397106        -2.503826         0.745808
 H         5.052183        -1.591835         2.163046
 H         2.986587        -0.440223         2.508835
