19
Iteration:  3879charge 0 multiplicity 1
 C         0.151914         0.291739         0.158732
 C         1.450091        -0.528830        -0.163354
 C         1.650635        -1.153770        -1.552549
 C         2.640569        -0.077033        -1.170690
 O         3.858008        -0.614012        -0.865713
 C         4.230487        -0.426502         0.472235
 C         4.448159        -1.658578         1.300182
 C         3.183393        -0.857270         1.482576
 O         1.992703        -1.367495         0.870292
 H        -0.067875         0.989348        -0.686474
 H        -0.529891        -0.452688         0.297558
 H         0.225751         0.951298         1.032642
 H         2.217652        -2.153504        -1.429234
 H         0.786185        -1.049124        -2.322642
 H         2.547691         0.938086        -1.659291
 H         4.806472         0.446278         0.718298
 H         4.437888        -2.647512         0.874087
 H         5.224360        -1.559462         2.120800
 H         3.115531        -0.264786         2.374077
