19
Iteration:   355
 C         0.393793         0.332663         0.184996
 C         1.473445        -0.602741        -0.156730
 C         1.523321        -1.210106        -1.563845
 C         2.577895        -0.168462        -1.161963
 O         3.833004        -0.635966        -0.832854
 C         4.166728        -0.316928         0.495637
 C         4.429611        -1.495329         1.319025
 C         3.096517        -0.828426         1.460290
 O         2.101822        -1.490308         0.817826
 H         0.868626         1.301670         0.612598
 H        -0.233745         0.451666        -0.714117
 H        -0.306353        -0.002528         0.977519
 H         1.776525        -2.243497        -1.757653
 H         0.893503        -0.964463        -2.392712
 H         2.653776         0.786359        -1.664872
 H         4.628447         0.646720         0.776895
 H         4.504276        -2.387668         0.701120
 H         5.000180        -1.249081         2.191501
 H         2.762710        -0.284141         2.301654
