19
Iteration:  3890charge 0 multiplicity 1
 C         0.146873         0.339502         0.132386
 C         1.515285        -0.563439        -0.220681
 C         1.604065        -1.208898        -1.548981
 C         2.506750        -0.107321        -1.149188
 O         3.950511        -0.516403        -0.902047
 C         4.256868        -0.461213         0.486771
 C         4.438493        -1.678183         1.353102
 C         3.175969        -0.882764         1.471534
 O         2.001300        -1.364948         0.928166
 H        -0.382711         0.877782        -0.689975
 H        -0.653130        -0.152180         0.516414
 H         0.457296         0.982709         0.965931
 H         2.215921        -2.146429        -1.818091
 H         0.847927        -1.007901        -2.431995
 H         2.547326         0.951591        -1.522659
 H         4.881101         0.379443         0.675870
 H         4.391554        -2.597876         0.773275
 H         5.235808        -1.525340         2.166179
 H         2.939921        -0.341569         2.369036
