19
Iteration:  3844charge 0 multiplicity 1
 C         0.258077         0.256881         0.230427
 C         1.473606        -0.589923        -0.235703
 C         1.538457        -1.087225        -1.668407
 C         2.598856        -0.135106        -1.198471
 O         3.902302        -0.704670        -0.853162
 C         4.220927        -0.353227         0.524152
 C         4.434588        -1.614919         1.335760
 C         3.190148        -0.793468         1.521238
 O         2.011443        -1.367345         0.892953
 H         0.053589         1.037897        -0.443112
 H        -0.637197        -0.302946         0.020441
 H         0.273521         0.460039         1.289164
 H         1.821678        -2.166938        -2.141744
 H         0.610827        -0.829729        -2.230078
 H         2.844467         0.942354        -1.501129
 H         4.817661         0.634303         0.587087
 H         4.365076        -2.560201         0.850762
 H         5.060234        -1.479020         2.135961
 H         3.037003        -0.212415         2.409632
