19
Iteration:  4520
 C         0.451291         0.384818         0.154157
 C         1.522077        -0.566508        -0.183055
 C         1.486082        -1.198587        -1.624850
 C         2.531937        -0.095345        -1.151300
 O         3.835911        -0.625537        -0.835727
 C         4.130090        -0.337292         0.538211
 C         4.476631        -1.595129         1.344580
 C         3.149315        -0.867663         1.493036
 O         2.046407        -1.481180         0.838448
 H         0.087785         0.941735        -0.744023
 H        -0.504048        -0.246913         0.338203
 H         0.607082         1.157656         0.977481
 H         1.965594        -2.217514        -1.769544
 H         0.597212        -1.190232        -2.220854
 H         2.468846         0.880265        -1.598483
 H         4.614086         0.615934         0.656850
 H         4.375705        -2.523203         0.764738
 H         5.377551        -1.588287         2.019106
 H         2.765487        -0.247153         2.405729
