19
Iteration:  1341charge 0 multiplicity 1
 C         0.371869         0.297402         0.139085
 C         1.513372        -0.620678        -0.203503
 C         1.625743        -1.232691        -1.603568
 C         2.476855        -0.165559        -1.237794
 O         3.789193        -0.462903        -0.871476
 C         4.170584        -0.362088         0.525438
 C         4.505423        -1.614028         1.345456
 C         3.204058        -0.903164         1.531131
 O         1.954928        -1.389848         0.920139
 H         0.729118         0.985886         0.950714
 H         0.096281         0.954758        -0.746374
 H        -0.544074        -0.053085         0.395652
 H         1.925364        -2.275697        -1.671598
 H         0.887997        -0.998945        -2.360082
 H         2.321600         0.770443        -1.676912
 H         4.863223         0.567243         0.686932
 H         4.613600        -2.551280         0.802599
 H         5.230950        -1.502926         2.175556
 H         2.989219        -0.471466         2.431640
