19
Iteration:  2972
 C         0.249670         0.308558         0.192905
 C         1.516959        -0.589247        -0.134546
 C         1.616454        -1.128177        -1.587544
 C         2.658815        -0.234563        -1.159067
 O         3.853168        -0.702004        -0.833075
 C         4.145995        -0.257490         0.522477
 C         4.480976        -1.583567         1.292001
 C         3.131133        -0.876574         1.415141
 O         1.985287        -1.370506         0.831483
 H         0.480059         1.456332         0.325312
 H        -0.485921         0.383998        -0.619221
 H        -0.174500        -0.069299         1.193766
 H         1.948085        -2.128036        -1.780645
 H         0.785845        -0.906531        -2.254556
 H         2.618052         0.765566        -1.537359
 H         4.697642         0.796289         0.685574
 H         4.526652        -2.540199         0.702337
 H         5.004453        -1.524378         2.243008
 H         3.024643        -0.177379         2.289916
