19
Iteration:  1482
 C         0.298513         0.380125         0.136281
 C         1.451360        -0.595500        -0.241891
 C         1.579718        -1.335624        -1.545632
 C         2.597568        -0.216493        -1.158881
 O         3.864160        -0.394727        -0.830267
 C         4.163446        -0.340090         0.580205
 C         4.546955        -1.684950         1.274909
 C         3.158466        -0.910452         1.493753
 O         1.958664        -1.330327         0.841649
 H         0.623653         1.099852         0.974160
 H        -0.059328         0.906177        -0.705814
 H        -0.564820        -0.136226         0.443251
 H         1.731677        -2.419773        -1.516537
 H         0.867887        -1.190755        -2.383227
 H         2.310439         0.670467        -1.671599
 H         4.749789         0.589253         0.882585
 H         4.559565        -2.666398         0.721063
 H         5.400932        -1.807352         1.962744
 H         3.100702        -0.429762         2.366843
