19
Iteration:  3437charge 0 multiplicity 1
 C         0.301236         0.353363         0.131301
 C         1.457322        -0.591150        -0.219281
 C         1.662084        -1.326222        -1.505824
 C         2.528492        -0.112246        -1.100820
 O         3.880096        -0.397088        -0.840845
 C         4.309350        -0.463157         0.467052
 C         4.406357        -1.697170         1.263163
 C         3.118626        -0.825028         1.467522
 O         1.940200        -1.359781         0.878953
 H         0.092155         1.018006        -0.620327
 H        -0.523867        -0.457909         0.241805
 H         0.536101         0.979425         0.939949
 H         2.029908        -2.329770        -1.416291
 H         0.951663        -1.254384        -2.383752
 H         2.395559         0.866161        -1.528543
 H         4.932564         0.462966         0.615801
 H         4.294157        -2.621112         0.751405
 H         5.230482        -1.749071         2.005132
 H         2.971575        -0.286837         2.468605
