19
Iteration:  4857
 C         0.560518         0.442450         0.238866
 C         1.481340        -0.591170        -0.262653
 C         1.505534        -1.264481        -1.599000
 C         2.588952        -0.208839        -1.226435
 O         3.908012        -0.521542        -0.840117
 C         4.087120        -0.359371         0.566359
 C         4.485773        -1.537946         1.366813
 C         3.028622        -0.984466         1.457907
 O         1.919065        -1.447391         0.803095
 H         0.124430         1.069129        -0.509283
 H        -0.117764        -0.211316         0.775466
 H         1.075501         1.322743         0.830000
 H         1.768484        -2.364700        -1.358650
 H         0.861565        -1.138059        -2.372019
 H         2.529988         0.757789        -1.686573
 H         4.434588         0.840873         0.769870
 H         4.600248        -2.500603         0.919861
 H         5.229266        -1.391551         2.092610
 H         2.839788        -0.270854         2.343430
