19
Iteration:  2268charge 0 multiplicity 1
 C         0.319603         0.256602         0.324126
 C         1.469916        -0.591167        -0.216406
 C         1.604970        -1.207676        -1.612923
 C         2.566442        -0.116711        -1.194132
 O         3.906176        -0.615588        -0.862881
 C         4.240684        -0.428327         0.478492
 C         4.341440        -1.527114         1.408979
 C         3.099868        -0.724364         1.469253
 O         2.042591        -1.469190         0.732832
 H         0.543980         0.855796         1.184487
 H        -0.061329         0.990775        -0.472253
 H        -0.544973        -0.342616         0.738615
 H         1.947625        -2.214484        -1.808238
 H         0.983974        -0.822337        -2.447427
 H         2.659761         0.967950        -1.582965
 H         4.780968         0.413370         0.706399
 H         4.270046        -2.659221         1.106127
 H         5.081872        -1.403646         2.294536
 H         2.883832         0.199779         2.185377
