19
Iteration:  3013
 C         0.459791         0.390243         0.284652
 C         1.519630        -0.644583        -0.216298
 C         1.552290        -1.260685        -1.605547
 C         2.518899        -0.175816        -1.291632
 O         3.862357        -0.507114        -0.875431
 C         4.137804        -0.435488         0.518716
 C         4.378434        -1.556377         1.500631
 C         3.088247        -0.824178         1.397731
 O         2.075593        -1.447448         0.768759
 H         0.781142         1.428503         0.516435
 H        -0.275670         0.328708        -0.456956
 H         0.179777        -0.036094         1.231304
 H         1.850849        -2.405471        -1.707004
 H         0.661178        -0.802294        -2.197560
 H         2.446691         0.916968        -1.465296
 H         4.579400         0.560634         0.602330
 H         4.562062        -2.566666         1.102219
 H         4.933820        -1.267040         2.360083
 H         2.853162        -0.235444         2.371873
