19
Iteration:  1870
 C         0.327595         0.308947         0.163156
 C         1.476895        -0.563813        -0.200966
 C         1.719083        -1.375121        -1.484193
 C         2.521130        -0.181162        -1.199206
 O         3.976697        -0.320296        -0.900240
 C         4.229772        -0.392272         0.518304
 C         4.371163        -1.733807         1.217766
 C         3.143075        -0.854359         1.448481
 O         1.878119        -1.332515         0.917212
 H         0.502554         1.149044         0.862469
 H        -0.162077         0.761595        -0.690529
 H        -0.422807        -0.297495         0.764620
 H         2.123666        -2.311113        -1.147682
 H         1.066427        -1.254557        -2.368444
 H         2.202601         0.833139        -1.574203
 H         4.765232         0.479224         0.837487
 H         4.135858        -2.724542         0.708817
 H         5.125142        -1.848617         2.043921
 H         2.963212        -0.262130         2.446789
