19
Iteration:  1980
 C         0.449649         0.255780         0.385130
 C         1.526097        -0.638087        -0.253980
 C         1.545477        -1.174094        -1.615959
 C         2.649449        -0.148606        -1.246662
 O         3.874663        -0.666716        -0.845455
 C         4.096081        -0.305761         0.484881
 C         4.391536        -1.486690         1.441213
 C         3.050301        -0.809445         1.447030
 O         2.037815        -1.423532         0.735462
 H         0.986593         0.639481         1.252424
 H         0.302176         1.114524        -0.230004
 H        -0.607048        -0.200907         0.533268
 H         1.996694        -2.159264        -1.916075
 H         0.673647        -1.008669        -2.264176
 H         2.548036         0.768683        -1.835606
 H         4.513331         0.617088         0.522930
 H         4.339263        -2.384391         0.839415
 H         4.873953        -1.428760         2.432830
 H         2.712629        -0.265191         2.438806
