19
Iteration:  3744
 C         0.393841         0.453474         0.199938
 C         1.488614        -0.583893        -0.181391
 C         1.647242        -1.224213        -1.573688
 C         2.576238        -0.125910        -1.178234
 O         3.924746        -0.566358        -0.852252
 C         4.082272        -0.325387         0.538024
 C         4.545823        -1.602228         1.318906
 C         3.109028        -1.002263         1.419921
 O         1.867972        -1.456003         0.834309
 H        -0.325108         0.725629        -0.526107
 H        -0.231891        -0.094968         0.936170
 H         0.782642         1.376369         0.616076
 H         1.901120        -2.296429        -1.625272
 H         0.833243        -1.159575        -2.338978
 H         2.472243         0.903822        -1.602044
 H         4.489105         0.780038         0.676565
 H         4.705186        -2.430640         0.625193
 H         5.052272        -1.492626         2.312290
 H         2.959133        -0.463101         2.408669
