19
Iteration:  3767charge 0 multiplicity 1
 C         0.460930         0.363355         0.298817
 C         1.482034        -0.557326        -0.284182
 C         1.505302        -1.260392        -1.699989
 C         2.581789        -0.244604        -1.210375
 O         3.907133        -0.547090        -0.766565
 C         4.143067        -0.297349         0.629336
 C         4.499593        -1.559958         1.307729
 C         3.098956        -0.941334         1.417967
 O         1.929699        -1.403155         0.810996
 H        -0.186310         0.882282        -0.358999
 H        -0.177179        -0.125970         1.004338
 H         0.969188         1.194381         0.756557
 H         1.539098        -2.444709        -1.843406
 H         0.813162        -0.895815        -2.508562
 H         2.665018         0.788034        -1.678224
 H         4.699228         0.719325         0.821713
 H         4.481694        -2.436995         0.688514
 H         5.076189        -1.337806         2.165177
 H         2.908287        -0.599986         2.448368
