19
Iteration:   641charge 0 multiplicity 1
 C         0.322876         0.292474         0.148808
 C         1.453901        -0.646779        -0.173808
 C         1.583553        -1.224271        -1.529033
 C         2.569112        -0.118782        -1.154726
 O         3.921477        -0.532454        -0.874855
 C         4.136783        -0.348756         0.503730
 C         4.421212        -1.612123         1.299330
 C         3.168053        -0.766411         1.447663
 O         2.020535        -1.457919         0.883638
 H         0.371660         0.664566         1.164579
 H         0.332414         1.045222        -0.730808
 H        -0.594379        -0.180076         0.012329
 H         1.992123        -2.250295        -1.566569
 H         0.721969        -1.068396        -2.219028
 H         2.387879         0.879956        -1.547493
 H         4.962585         0.495214         0.624895
 H         4.254824        -2.537623         0.730261
 H         5.075264        -1.393654         2.164838
 H         2.998885        -0.144605         2.443351
