19
Iteration:   404charge 0 multiplicity 1
 C         0.326288         0.261213         0.167525
 C         1.528394        -0.577712        -0.213298
 C         1.642448        -1.401373        -1.566501
 C         2.553985        -0.155754        -1.197222
 O         3.866181        -0.384559        -0.870631
 C         4.233723        -0.380490         0.465987
 C         4.420021        -1.721975         1.292278
 C         3.192393        -0.793239         1.526039
 O         1.889576        -1.268068         0.909190
 H         0.649296         1.060808         0.786529
 H        -0.374244         0.580939        -0.663430
 H        -0.387368        -0.250270         0.832493
 H         1.902252        -2.489398        -1.480741
 H         0.920977        -1.142458        -2.378927
 H         2.421575         0.775773        -1.804432
 H         4.909501         0.430112         0.618603
 H         4.220751        -2.709413         0.817974
 H         5.224811        -1.574190         2.040464
 H         3.091311        -0.425501         2.635390
