19
Iteration:  4038charge 0 multiplicity 1
 C         0.252767         0.253801         0.289964
 C         1.490681        -0.570069        -0.254889
 C         1.592341        -1.082275        -1.698656
 C         2.589976        -0.103951        -1.160668
 O         3.857110        -0.684908        -0.887205
 C         4.281561        -0.469442         0.431297
 C         4.425747        -1.555260         1.477617
 C         3.148557        -0.797669         1.375594
 O         2.001628        -1.392793         0.888235
 H        -0.036579         1.128090        -0.352949
 H        -0.739887        -0.437613         0.476198
 H         0.358920         0.553416         1.367921
 H         2.077545        -2.054149        -1.730448
 H         0.752262        -0.802657        -2.235772
 H         2.819090         0.899637        -1.564989
 H         4.841380         0.550157         0.526418
 H         4.419381        -2.550196         1.217804
 H         5.086328        -1.455438         2.312491
 H         2.743537        -0.123763         2.156361
