19
Iteration:  4554charge 0 multiplicity 1
 C         0.248608         0.261825         0.413433
 C         1.423129        -0.554128        -0.202147
 C         1.565214        -1.137544        -1.677941
 C         2.660055        -0.140048        -1.205098
 O         3.973040        -0.707553        -0.890645
 C         4.255991        -0.411635         0.447041
 C         4.404232        -1.595989         1.476389
 C         3.115761        -0.744562         1.316418
 O         1.971438        -1.359134         0.805186
 H        -0.105715         1.037685        -0.368267
 H        -0.475879        -0.621117         0.627323
 H         0.427527         0.678375         1.407837
 H         1.920951        -2.235209        -1.734408
 H         0.663829        -0.723237        -2.215516
 H         2.709649         0.885469        -1.642316
 H         4.815918         0.440677         0.660631
 H         4.308299        -2.644954         1.103181
 H         5.146052        -1.361787         2.284699
 H         2.844915         0.043555         2.137735
