19
Iteration:  3680
 C         0.241001         0.218317         0.234820
 C         1.495779        -0.517728        -0.239771
 C         1.663696        -1.170795        -1.588731
 C         2.590616        -0.112415        -1.182569
 O         3.955968        -0.515656        -0.916942
 C         4.208191        -0.499118         0.459931
 C         4.386659        -1.687274         1.311002
 C         3.163281        -0.791670         1.483608
 O         1.900136        -1.294926         0.935443
 H        -0.039726         0.935444        -0.475082
 H        -0.571339        -0.526158         0.101576
 H         0.393116         0.432321         1.291110
 H         1.913636        -2.246025        -1.556661
 H         0.855059        -0.770359        -2.348789
 H         2.639291         0.884988        -1.723407
 H         5.101158         0.139461         0.807988
 H         4.268069        -2.711758         1.015416
 H         5.165284        -1.622901         2.106147
 H         3.025405        -0.237549         2.462543
