19
Iteration:    70charge 0 multiplicity 1
 C         0.349011         0.414678         0.260772
 C         1.509462        -0.629019        -0.201405
 C         1.552668        -1.229141        -1.685772
 C         2.515197        -0.230139        -1.234269
 O         3.811406        -0.739400        -0.836127
 C         4.149059        -0.292257         0.467373
 C         4.503908        -1.396136         1.404776
 C         3.115889        -0.832885         1.552986
 O         2.107469        -1.488789         0.815644
 H         0.438249         0.611878         1.414886
 H         0.454631         1.284372        -0.201442
 H        -0.696431         0.032046        -0.006817
 H         1.932307        -2.262854        -1.883486
 H         0.762653        -0.803683        -2.304497
 H         2.624887         0.781765        -1.699483
 H         4.418281         0.827514         0.625513
 H         4.253899        -2.349449         0.866762
 H         5.341628        -1.414279         2.104750
 H         2.867288        -0.159795         2.356658
