19
Iteration:  1364charge 0 multiplicity 1
 C         0.344098         0.274107         0.257642
 C         1.488480        -0.617684        -0.246199
 C         1.550504        -1.192221        -1.597395
 C         2.585395        -0.144468        -1.104676
 O         3.933786        -0.629498        -0.894127
 C         4.202205        -0.357432         0.497198
 C         4.438353        -1.514377         1.356000
 C         3.072585        -0.800293         1.389848
 O         1.979102        -1.433904         0.854883
 H         0.757934         0.691427         1.186953
 H        -0.178135         1.100576        -0.356333
 H        -0.522576        -0.240155         0.478398
 H         2.012763        -2.166927        -1.736347
 H         0.748106        -1.069730        -2.325824
 H         2.595159         0.851760        -1.435504
 H         4.715595         0.667126         0.717358
 H         4.537785        -2.481682         0.826997
 H         5.211605        -1.402968         2.134695
 H         2.775915        -0.141192         2.223726
