19
Iteration:  2165
 C         0.386343         0.341794         0.132636
 C         1.524109        -0.606928        -0.188550
 C         1.633381        -1.229720        -1.615005
 C         2.530552        -0.178787        -1.197877
 O         3.866692        -0.461582        -0.856869
 C         4.151309        -0.406769         0.508485
 C         4.520373        -1.614659         1.330711
 C         3.089566        -0.905890         1.540855
 O         1.903357        -1.400237         0.889706
 H         0.665799         0.894532         1.081230
 H         0.156375         1.078004        -0.611092
 H        -0.606920        -0.254797         0.329341
 H         2.257208        -2.147831        -1.557259
 H         0.906252        -1.122434        -2.434472
 H         2.583245         0.805657        -1.592484
 H         4.567550         0.690362         0.756833
 H         4.376165        -2.351191         0.597533
 H         5.252660        -1.708547         2.042859
 H         2.927924        -0.313095         2.447984
