19
Iteration:  2541
 C         0.422038         0.386084         0.249940
 C         1.487177        -0.615240        -0.209736
 C         1.570994        -1.289815        -1.605738
 C         2.494803        -0.190624        -1.134196
 O         3.848201        -0.589816        -0.875073
 C         4.216889        -0.315811         0.463925
 C         4.434241        -1.525955         1.411716
 C         3.135104        -0.765916         1.472540
 O         1.983534        -1.513352         0.771375
 H         0.132653         0.271411         1.276654
 H         0.789826         1.422190         0.034684
 H        -0.552780         0.340220        -0.238652
 H         1.984372        -2.310680        -1.556952
 H         0.908186        -1.057382        -2.431364
 H         2.574450         0.695938        -1.722377
 H         4.616145         0.586565         0.728189
 H         4.572326        -2.491230         0.947999
 H         5.079714        -1.248575         2.198214
 H         2.888612        -0.187163         2.356501
