19
Iteration:  1832
 C         0.263925         0.303398        -0.051854
 C         1.510311        -0.576133        -0.113672
 C         1.616069        -1.378812        -1.510323
 C         2.490521        -0.192791        -1.161238
 O         3.873590        -0.246997        -0.838368
 C         4.249836        -0.357291         0.545042
 C         4.431140        -1.832083         1.182374
 C         3.265624        -0.880129         1.545510
 O         1.929616        -1.256692         0.969827
 H         0.609542         1.251128         0.606218
 H         0.009184         0.627458        -1.166421
 H        -0.565324        -0.241820         0.450742
 H         1.968403        -2.425141        -1.302092
 H         0.951646        -1.453357        -2.374506
 H         2.259668         0.792538        -1.498834
 H         5.066560         0.383532         0.869776
 H         4.124719        -2.419404         0.373598
 H         5.063125        -2.276701         1.913892
 H         3.170213        -0.623980         2.521280
