19
Iteration:  3826charge 0 multiplicity 1
 C         0.312134         0.292450         0.222215
 C         1.461856        -0.608804        -0.183453
 C         1.563352        -1.102390        -1.685941
 C         2.569146        -0.140158        -1.147104
 O         3.859203        -0.580356        -0.911297
 C         4.230460        -0.479203         0.458238
 C         4.468640        -1.546200         1.484244
 C         3.127025        -0.815642         1.429432
 O         1.991099        -1.434114         0.871479
 H         0.408052         1.189238        -0.509686
 H        -0.652017        -0.215273         0.281916
 H         0.632725         0.448768         1.294959
 H         1.913351        -2.136332        -1.810647
 H         0.962132        -0.684420        -2.534581
 H         2.330498         0.837663        -1.591873
 H         4.763951         0.369015         0.678508
 H         4.414574        -2.581326         1.141874
 H         5.350230        -1.509668         2.233440
 H         2.916516        -0.119204         2.238885
