19
Iteration:   559charge 0 multiplicity 1
 C         0.436850         0.301855         0.335262
 C         1.453858        -0.622709        -0.240417
 C         1.521550        -1.170134        -1.668638
 C         2.544118        -0.206938        -1.249499
 O         3.872866        -0.620929        -0.838659
 C         4.162026        -0.348486         0.533814
 C         4.402548        -1.450432         1.444923
 C         3.081308        -0.813806         1.473672
 O         2.069399        -1.514314         0.740446
 H         1.110111         1.160082         0.670142
 H        -0.105443         0.806919        -0.444489
 H        -0.200894        -0.205131         1.175986
 H         1.922954        -2.146278        -1.835336
 H         0.786489        -0.757500        -2.334674
 H         2.551837         0.824115        -1.698884
 H         4.490920         0.648359         0.523721
 H         4.627632        -2.446138         1.135681
 H         5.063353        -1.242632         2.278359
 H         2.886578        -0.190325         2.265706
