19
Iteration:  4194
 C         0.292955         0.188135         0.216757
 C         1.536519        -0.552135        -0.197890
 C         1.569385        -1.168398        -1.568177
 C         2.607029        -0.055252        -1.152949
 O         3.914851        -0.528952        -0.980778
 C         4.222347        -0.457746         0.429437
 C         4.346060        -1.697221         1.409552
 C         3.144617        -0.771439         1.475366
 O         1.960510        -1.341406         0.935629
 H         0.085624         1.041689        -0.522274
 H        -0.555265        -0.630491        -0.061340
 H         0.403574         0.568826         1.269618
 H         2.179238        -2.134115        -1.664332
 H         0.937635        -0.875441        -2.382503
 H         2.632127         0.892200        -1.682889
 H         5.022591         0.203714         0.702716
 H         3.989206        -2.589034         0.912213
 H         5.175463        -1.491780         2.139927
 H         2.935266        -0.314899         2.385606
