19
Iteration:  1750charge 0 multiplicity 1
 C         0.221873         0.249024         0.087552
 C         1.374603        -0.617201        -0.203813
 C         1.623046        -1.216580        -1.592045
 C         2.526145        -0.034418        -1.159410
 O         3.892498        -0.467631        -0.868357
 C         4.331718        -0.486029         0.515349
 C         4.391228        -1.708481         1.358316
 C         3.225631        -0.757262         1.562386
 O         2.030591        -1.365383         0.877420
 H         0.427793         0.920074         0.881762
 H        -0.168869         0.823314        -0.768484
 H        -0.686061        -0.472370         0.448676
 H         2.036501        -2.219437        -1.556197
 H         0.894267        -1.014012        -2.354543
 H         2.321845         0.883109        -1.769309
 H         5.076635         0.291106         0.723857
 H         4.159795        -2.640622         0.841820
 H         5.348593        -1.794030         1.903791
 H         2.931310        -0.021340         2.406293
