19
Iteration:  1728
 C         0.328803         0.282380         0.181058
 C         1.494533        -0.592374        -0.148730
 C         1.629112        -1.163424        -1.574234
 C         2.623610        -0.096116        -1.129483
 O         3.870389        -0.543803        -0.915797
 C         4.164627        -0.379924         0.457869
 C         4.396668        -1.646615         1.408626
 C         3.114381        -0.841627         1.385924
 O         2.010342        -1.419097         0.851804
 H         0.394991         1.044316         0.903325
 H        -0.004437         0.684216        -0.808777
 H        -0.485454        -0.527807         0.566320
 H         2.173192        -2.097000        -1.688995
 H         0.756317        -1.028635        -2.134315
 H         2.404579         0.947326        -1.456095
 H         4.810300         0.484151         0.697831
 H         4.507538        -2.661417         1.041534
 H         4.956368        -1.415078         2.327923
 H         2.815723        -0.200340         2.317277
