19
Iteration:  2415charge 0 multiplicity 1
 C         0.275690         0.272365         0.153319
 C         1.502325        -0.556846        -0.194793
 C         1.695403        -1.272380        -1.585686
 C         2.528546        -0.124069        -1.153590
 O         3.895023        -0.492819        -0.846552
 C         4.222972        -0.380198         0.451427
 C         4.373242        -1.693256         1.312436
 C         3.186750        -0.782914         1.525936
 O         1.952612        -1.364406         0.858148
 H         0.495579         1.375671         0.419845
 H        -0.506753         0.397557        -0.588926
 H        -0.279449        -0.272651         0.940686
 H         2.219496        -2.217634        -1.363329
 H         0.900987        -1.108106        -2.368762
 H         2.519163         0.845330        -1.639196
 H         4.808205         0.622544         0.662814
 H         4.194711        -2.647618         0.781113
 H         5.130807        -1.874771         2.065230
 H         2.976158        -0.381158         2.514427
