19
Iteration:   302charge 0 multiplicity 1
 C         0.369826         0.314525         0.327588
 C         1.446311        -0.627982        -0.128933
 C         1.569157        -1.166359        -1.601213
 C         2.616432        -0.214366        -1.230107
 O         3.911550        -0.715364        -0.895852
 C         4.103848        -0.263470         0.429265
 C         4.412351        -1.453094         1.442123
 C         3.132810        -0.782609         1.375196
 O         2.054101        -1.495611         0.780218
 H         0.594937         0.685968         1.347612
 H         0.172305         1.220556        -0.362370
 H        -0.572082        -0.203253         0.370806
 H         1.883105        -2.200232        -1.719084
 H         0.671732        -0.906813        -2.095878
 H         2.698584         0.816478        -1.533696
 H         4.588079         0.638186         0.568828
 H         4.379629        -2.484639         1.084182
 H         5.026658        -1.194878         2.290986
 H         2.741701        -0.115472         2.242460
