19
Iteration:   806
 C         0.365231         0.316289         0.266192
 C         1.553232        -0.623940        -0.223509
 C         1.483241        -1.268996        -1.532288
 C         2.604900        -0.159170        -1.142833
 O         3.929216        -0.588544        -0.874747
 C         4.120892        -0.295216         0.531375
 C         4.445830        -1.498235         1.361472
 C         3.046327        -0.804622         1.417227
 O         2.014550        -1.520275         0.764763
 H         0.639275         0.670560         1.256891
 H         0.253489         1.176986        -0.541872
 H        -0.606314        -0.103857         0.313828
 H         2.097532        -2.107979        -1.739794
 H         0.726768        -0.941642        -2.174157
 H         2.514980         0.743261        -1.723260
 H         4.708136         0.687101         0.788658
 H         4.547371        -2.367826         0.751160
 H         5.181020        -1.365140         2.127127
 H         2.840181        -0.082503         2.286295
