19
Iteration:  2699
 C         0.291305         0.399527         0.083559
 C         1.531350        -0.566620        -0.192860
 C         1.546278        -1.314111        -1.485423
 C         2.616593        -0.147906        -1.132037
 O         3.822372        -0.666786        -0.904107
 C         4.113917        -0.235154         0.456310
 C         4.497328        -1.564240         1.269530
 C         3.179413        -0.855727         1.485557
 O         1.997309        -1.421611         0.948199
 H        -0.556709        -0.244919        -0.281120
 H         0.285414         0.525163         1.163055
 H         0.569151         1.327531        -0.473871
 H         2.032480        -2.213716        -1.344860
 H         0.722950        -1.350594        -2.090464
 H         2.447337         0.765060        -1.639953
 H         4.498642         0.803679         0.667287
 H         4.795969        -2.432763         0.752387
 H         5.185723        -1.398039         2.003639
 H         3.025867        -0.388371         2.442912
