19
Iteration:  1521charge 0 multiplicity 1
 C         0.264875         0.232187         0.093115
 C         1.542073        -0.580484        -0.169977
 C         1.718778        -1.323234        -1.448823
 C         2.576628        -0.134106        -1.155185
 O         3.915163        -0.382989        -0.955553
 C         4.174594        -0.334490         0.538054
 C         4.311649        -1.793346         1.235559
 C         3.187009        -0.867640         1.430172
 O         1.953748        -1.260498         0.960199
 H         0.503719         0.887067         0.920975
 H         0.091506         0.942901        -0.770694
 H        -0.648354        -0.363543         0.521385
 H         2.224199        -2.274488        -1.360560
 H         0.912083        -1.198222        -2.142326
 H         2.442238         0.898183        -1.598868
 H         4.700112         0.514718         0.775763
 H         3.970616        -2.503311         0.513484
 H         5.082396        -1.975522         1.977627
 H         2.953740        -0.437726         2.532209
