19
Iteration:   405charge 0 multiplicity 1
 C         0.320743         0.258850         0.164211
 C         1.534030        -0.574513        -0.217415
 C         1.637742        -1.405945        -1.566845
 C         2.549366        -0.147588        -1.191591
 O         3.868868        -0.385368        -0.868323
 C         4.233014        -0.384700         0.466836
 C         4.418262        -1.721755         1.288491
 C         3.198795        -0.787777         1.526429
 O         1.888994        -1.268390         0.912665
 H         0.651556         1.083309         0.774997
 H        -0.304933         0.585111        -0.648215
 H        -0.410615        -0.277786         0.830356
 H         1.890133        -2.502327        -1.487591
 H         0.909090        -1.192522        -2.390786
 H         2.429935         0.793509        -1.803470
 H         4.925063         0.471934         0.644087
 H         4.204476        -2.718810         0.814011
 H         5.236245        -1.600069         2.036502
 H         3.077652        -0.438321         2.598141
