19
Iteration:  2289
 C         0.270103         0.228379         0.120283
 C         1.517580        -0.537274        -0.242801
 C         1.512116        -1.128441        -1.575653
 C         2.551533        -0.204703        -1.191845
 O         3.896186        -0.587062        -0.846932
 C         4.212443        -0.371942         0.513198
 C         4.430509        -1.607794         1.401343
 C         3.198951        -0.815782         1.480257
 O         2.035765        -1.360614         0.861870
 H         0.361711         0.617306         1.096615
 H         0.063015         1.080529        -0.625927
 H        -0.635540        -0.485847         0.192181
 H         1.827673        -2.157248        -1.563597
 H         0.649556        -0.911440        -2.208634
 H         2.612987         0.822457        -1.680971
 H         4.738781         0.534190         0.628558
 H         4.351609        -2.529837         0.695562
 H         5.169686        -1.544562         2.287436
 H         3.073696        -0.439158         2.600481
