19
Iteration:  1174
 C         0.391951         0.329264         0.259799
 C         1.478576        -0.603759        -0.227763
 C         1.636450        -1.221569        -1.588258
 C         2.613673        -0.240755        -1.175842
 O         3.852430        -0.579074        -0.783374
 C         4.122788        -0.288102         0.507443
 C         4.434396        -1.517222         1.251199
 C         3.154080        -0.811555         1.429803
 O         1.955016        -1.470857         0.820748
 H         0.620843         0.772596         1.336912
 H         0.051629         1.053332        -0.481900
 H        -0.362300        -0.346725         0.550322
 H         1.889918        -2.307472        -1.664864
 H         0.906106        -1.014215        -2.384991
 H         2.651910         0.854658        -1.602017
 H         4.587920         0.773550         0.712363
 H         4.214537        -2.501813         0.833581
 H         5.206848        -1.463889         2.026201
 H         2.769549        -0.209777         2.316722
