19
Iteration:  1845charge 0 multiplicity 1
 C         0.331908         0.296541        -0.011239
 C         1.485634        -0.597196        -0.207638
 C         1.575421        -1.389217        -1.468131
 C         2.515280        -0.177009        -1.212290
 O         3.926321        -0.230063        -0.795394
 C         4.250604        -0.399934         0.568067
 C         4.332559        -1.770148         1.113830
 C         3.214507        -0.890023         1.541748
 O         1.989104        -1.317971         1.012744
 H         0.420111         1.325559         0.589142
 H        -0.069263         0.627337        -1.084659
 H        -0.478900        -0.176862         0.491095
 H         2.060610        -2.343370        -1.438129
 H         0.784198        -1.153608        -2.111918
 H         2.298648         0.687499        -1.892926
 H         4.952328         0.482135         0.905498
 H         4.048168        -2.685910         0.629133
 H         5.158686        -1.869188         1.800974
 H         3.149810        -0.418782         2.470624
