19
Iteration:  1270
 C         0.315943         0.164360         0.159415
 C         1.472091        -0.587484        -0.271162
 C         1.706498        -1.270851        -1.546845
 C         2.516445        -0.161344        -1.251898
 O         3.886208        -0.352730        -0.874151
 C         4.204557        -0.447855         0.579562
 C         4.462389        -1.774470         1.235759
 C         3.206971        -0.858341         1.488453
 O         1.885364        -1.149612         0.980473
 H         0.601471         0.944806         0.935077
 H        -0.208237         0.586439        -0.716834
 H        -0.659552        -0.460344         0.707873
 H         2.210561        -2.238138        -1.407549
 H         0.960537        -1.425221        -2.316181
 H         2.334075         0.896829        -1.706432
 H         4.795599         0.355022         0.785749
 H         4.190598        -2.683843         0.694190
 H         5.356693        -1.865242         1.864064
 H         2.893332        -0.253554         2.459800
