19
Iteration:  1641
 C         0.466696         0.344516         0.303451
 C         1.489774        -0.625868        -0.218153
 C         1.571815        -1.180920        -1.594883
 C         2.590471        -0.192835        -1.195157
 O         3.892607        -0.497893        -0.918321
 C         4.149143        -0.335099         0.501512
 C         4.392933        -1.487845         1.450374
 C         3.009650        -0.920026         1.420675
 O         2.015777        -1.574294         0.805583
 H         0.887363         0.846606         1.083956
 H         0.436575         1.037063        -0.503863
 H        -0.577910         0.054252         0.693524
 H         1.820667        -2.182881        -1.837929
 H         0.989340        -0.669956        -2.300373
 H         2.613751         0.745664        -1.794078
 H         4.546282         0.628009         0.549698
 H         4.468243        -2.464572         0.985687
 H         4.998936        -1.254870         2.298862
 H         2.675124        -0.246972         2.330124
