19
Iteration:  3199
 C         0.372897         0.334724         0.098428
 C         1.460315        -0.563896        -0.112353
 C         1.561930        -1.244571        -1.600288
 C         2.514760        -0.154645        -1.147292
 O         3.846235        -0.519945        -0.841005
 C         4.157507        -0.365754         0.518678
 C         4.450365        -1.579861         1.281297
 C         3.203054        -0.907242         1.472684
 O         2.023666        -1.415607         0.879740
 H         0.744606         1.224015         0.566235
 H        -0.273147         0.414718        -0.702287
 H        -0.260516         0.028429         0.942877
 H         1.924561        -2.288985        -1.577256
 H         0.797459        -1.189947        -2.440636
 H         2.458730         0.815118        -1.629217
 H         4.663742         0.552896         0.702959
 H         4.463014        -2.454693         0.659488
 H         5.184456        -1.597848         2.084014
 H         3.166389        -0.189169         2.361878
