19
Iteration:  1024charge 0 multiplicity 1
 C         0.162198         0.209896         0.055732
 C         1.546700        -0.611887        -0.096964
 C         1.677771        -1.265672        -1.508315
 C         2.640610        -0.095326        -1.113669
 O         3.943778        -0.479547        -0.956773
 C         4.188621        -0.405104         0.451231
 C         4.361483        -1.727975         1.200871
 C         3.139315        -0.713322         1.520375
 O         1.982880        -1.321134         1.010521
 H         0.144025         0.891788         0.939789
 H         0.019378         1.065273        -0.747550
 H        -0.658353        -0.481066        -0.033044
 H         2.224673        -2.235651        -1.433367
 H         0.720756        -1.300714        -2.084791
 H         2.384024         0.895266        -1.444911
 H         5.049906         0.354395         0.625367
 H         3.884283        -2.495123         0.574066
 H         5.227770        -1.788757         1.875357
 H         3.021144        -0.204747         2.481388
