19
Iteration:  1235
 C         0.180086         0.182112         0.050515
 C         1.437051        -0.637023        -0.117998
 C         1.660609        -1.174010        -1.475504
 C         2.571778        -0.102425        -1.097273
 O         3.943565        -0.491624        -0.920823
 C         4.295588        -0.402654         0.486986
 C         4.379978        -1.726361         1.215551
 C         3.168965        -0.704731         1.486199
 O         1.996425        -1.324066         0.949484
 H         0.117400         1.011532         0.725065
 H         0.002101         0.657131        -1.007149
 H        -0.718482        -0.635252         0.268615
 H         2.198060        -2.106264        -1.373728
 H         0.829523        -1.116588        -2.149304
 H         2.357235         0.868976        -1.469393
 H         4.920983         0.383233         0.812846
 H         3.959787        -2.536327         0.617857
 H         5.236916        -1.997144         1.833349
 H         3.172284        -0.118248         2.425053
