19
Iteration:  3329
 C         0.371620         0.273215         0.109181
 C         1.530902        -0.597624        -0.151638
 C         1.538196        -1.121868        -1.629195
 C         2.547639        -0.129882        -1.132425
 O         3.849475        -0.654177        -0.846689
 C         4.183390        -0.313767         0.505842
 C         4.456892        -1.590443         1.357355
 C         3.137922        -0.871862         1.461567
 O         2.003158        -1.410420         0.874480
 H        -0.027374         0.835905        -0.760002
 H        -0.577606        -0.303834         0.623563
 H         0.787947         0.858896         0.978777
 H         1.952181        -2.094129        -2.040627
 H         0.677195        -0.707904        -2.094556
 H         2.493500         0.936871        -1.330218
 H         4.679826         0.571696         0.446617
 H         4.520676        -2.465371         0.684822
 H         5.142069        -1.609452         2.169187
 H         2.950028        -0.197122         2.350605
