19
Iteration:  4550charge 0 multiplicity 1
 C         0.255523         0.266256         0.378898
 C         1.391185        -0.535162        -0.168377
 C         1.589315        -1.164419        -1.667238
 C         2.695424        -0.130783        -1.195305
 O         3.935125        -0.698182        -0.881691
 C         4.261815        -0.410850         0.441420
 C         4.412048        -1.614454         1.453576
 C         3.116823        -0.752515         1.337763
 O         1.981036        -1.365037         0.782801
 H        -0.074515         0.997116        -0.300290
 H        -0.498802        -0.486695         0.580861
 H         0.488522         0.788565         1.417773
 H         1.829673        -2.167084        -1.790769
 H         0.732632        -0.871419        -2.146551
 H         2.570122         0.851492        -1.570743
 H         4.828942         0.598738         0.586913
 H         4.386251        -2.651659         1.171721
 H         5.082478        -1.323891         2.261190
 H         2.774146        -0.054255         2.113375
