19
Iteration:   652charge 0 multiplicity 1
 C         0.244911         0.248119         0.126613
 C         1.559425        -0.583014        -0.119699
 C         1.642382        -1.233214        -1.556596
 C         2.549851        -0.175657        -1.124134
 O         3.912912        -0.527856        -0.922389
 C         4.250931        -0.320037         0.417041
 C         4.369073        -1.602547         1.264086
 C         3.107556        -0.842154         1.528834
 O         2.004968        -1.390534         0.925872
 H         0.269875         0.801955         1.069233
 H         0.170287         1.204947        -0.507068
 H        -0.624264        -0.315672         0.080181
 H         2.116607        -2.221313        -1.620718
 H         0.781400        -1.075976        -2.234646
 H         2.463365         0.814710        -1.566714
 H         4.813340         0.712683         0.655017
 H         4.156075        -2.566158         0.773499
 H         5.052322        -1.844204         2.126977
 H         2.869369        -0.144048         2.454045
