19
Iteration:  2364charge 0 multiplicity 1
 C         0.314058         0.247775         0.074534
 C         1.552481        -0.574577        -0.231681
 C         1.608069        -1.371759        -1.473750
 C         2.564785        -0.188092        -1.226614
 O         3.949359        -0.279477        -0.882598
 C         4.187608        -0.400190         0.539533
 C         4.310571        -1.759546         1.155317
 C         3.131930        -0.850051         1.581363
 O         1.978292        -1.292719         0.974201
 H         0.480801         1.087407         0.740961
 H        -0.048741         0.848982        -0.821933
 H        -0.478471        -0.395312         0.638197
 H         1.934375        -2.407927        -1.281214
 H         1.020380        -1.053227        -2.306559
 H         2.323646         0.774656        -1.754659
 H         4.968938         0.416909         0.851186
 H         4.234661        -2.836396         0.771949
 H         5.133783        -1.787411         1.930488
 H         2.994851        -0.153347         2.462092
