19
Iteration:   275charge 0 multiplicity 1
 C         0.399352         0.253613         0.247989
 C         1.471485        -0.530992        -0.227770
 C         1.485182        -1.285754        -1.615235
 C         2.522351        -0.205606        -1.196977
 O         3.873889        -0.597748        -0.830497
 C         4.208154        -0.327466         0.462302
 C         4.396135        -1.543666         1.401380
 C         3.141451        -0.753576         1.478931
 O         2.098803        -1.404125         0.789401
 H         0.507943         0.451723         1.339511
 H         0.375969         1.214920        -0.201325
 H        -0.604511        -0.231700         0.016885
 H         1.780138        -2.327703        -1.468342
 H         0.621043        -0.999814        -2.266784
 H         2.508504         0.728534        -1.817674
 H         4.943777         0.551189         0.619145
 H         4.277762        -2.586719         1.093393
 H         5.152754        -1.291453         2.164408
 H         2.826790        -0.187911         2.285738
