19
Iteration:  1820
 C         0.238907         0.309285        -0.025045
 C         1.426838        -0.583608        -0.193266
 C         1.711520        -1.383311        -1.465616
 C         2.504206        -0.145357        -1.053993
 O         3.886289        -0.306939        -0.854948
 C         4.268656        -0.388701         0.543185
 C         4.416696        -1.805412         1.146801
 C         3.228780        -0.954389         1.461690
 O         1.925130        -1.206785         1.022954
 H         0.424169         1.231590         0.639068
 H        -0.064029         0.735318        -1.016961
 H        -0.723661        -0.228742         0.333222
 H         2.271416        -2.328992        -1.259798
 H         0.985615        -1.263125        -2.314771
 H         2.353922         0.680432        -1.718482
 H         4.891818         0.468770         0.745657
 H         4.350207        -2.546892         0.365694
 H         5.180205        -2.067737         1.876509
 H         3.236914        -0.458402         2.426542
