19
Iteration:  1214
 C         0.172739         0.198856         0.014232
 C         1.516465        -0.527003        -0.180527
 C         1.580560        -1.213307        -1.509968
 C         2.567440        -0.097189        -1.112897
 O         3.860955        -0.498009        -0.865278
 C         4.251564        -0.389504         0.441152
 C         4.502297        -1.674797         1.313303
 C         3.218860        -0.886168         1.458005
 O         1.979393        -1.337316         0.970880
 H         0.119424         0.891010         0.824182
 H        -0.000501         0.931374        -0.783264
 H        -0.715159        -0.566744         0.243655
 H         2.012527        -2.195071        -1.649631
 H         0.829578        -0.916248        -2.223699
 H         2.421138         0.891093        -1.565442
 H         4.877340         0.377255         0.667217
 H         4.356359        -2.696571         0.970798
 H         5.222758        -1.508010         2.111102
 H         3.153269        -0.199168         2.358598
