19
Iteration:  2970
 C         0.248566         0.287225         0.186176
 C         1.524590        -0.582697        -0.132499
 C         1.610021        -1.120380        -1.583675
 C         2.647122        -0.225018        -1.161109
 O         3.853382        -0.702098        -0.838862
 C         4.144096        -0.244345         0.534967
 C         4.474102        -1.592174         1.297142
 C         3.142291        -0.887105         1.414751
 O         1.977974        -1.358082         0.841172
 H         0.544185         1.398163         0.328300
 H        -0.385723         0.345448        -0.643620
 H        -0.144021        -0.042525         1.149099
 H         2.012751        -2.212219        -1.819939
 H         0.736889        -0.850487        -2.264799
 H         2.614152         0.778284        -1.611614
 H         4.678111         0.755519         0.606034
 H         4.512273        -2.538935         0.747406
 H         5.001950        -1.537474         2.206107
 H         3.076917        -0.194185         2.317788
