19
Iteration:  1970
 C         0.446456         0.314689         0.347433
 C         1.486812        -0.620696        -0.250867
 C         1.597467        -1.132515        -1.673486
 C         2.601926        -0.140891        -1.262529
 O         3.814304        -0.725604        -0.891404
 C         4.164959        -0.287372         0.502651
 C         4.406856        -1.438459         1.461126
 C         3.062044        -0.830606         1.446515
 O         2.035273        -1.512569         0.780461
 H         0.689149         0.556146         1.376157
 H         0.167717         1.208821        -0.130767
 H        -0.532368        -0.333138         0.556206
 H         1.981215        -2.192599        -1.679185
 H         0.798344        -0.827991        -2.380475
 H         2.723534         0.916586        -1.578788
 H         4.635586         0.592241         0.642111
 H         4.474129        -2.474623         1.141704
 H         5.070144        -1.186583         2.295418
 H         2.640001        -0.256467         2.390303
