19
Iteration:  3501charge 0 multiplicity 1
 C         0.311052         0.295246         0.205398
 C         1.432306        -0.661517        -0.248345
 C         1.617520        -1.122286        -1.635210
 C         2.573909        -0.088745        -1.130590
 O         3.807324        -0.682527        -0.820704
 C         4.220780        -0.412692         0.453681
 C         4.478912        -1.583604         1.364719
 C         3.144027        -0.790472         1.472418
 O         2.012830        -1.396287         0.843241
 H         0.281803         1.144396        -0.537358
 H        -0.634257        -0.154510         0.287541
 H         0.461637         0.605217         1.226597
 H         2.030917        -2.099982        -1.770962
 H         0.816663        -0.870206        -2.425528
 H         2.618137         1.009980        -1.236876
 H         4.800358         0.641725         0.574464
 H         4.457162        -2.522586         0.895040
 H         5.193141        -1.342836         2.157365
 H         2.946101        -0.218862         2.401419
