19
Iteration:  3306
 C         0.366879         0.300343         0.337266
 C         1.435234        -0.632143        -0.182684
 C         1.627902        -1.128965        -1.678800
 C         2.582209        -0.157556        -1.153314
 O         3.876942        -0.618243        -0.909135
 C         4.260423        -0.424539         0.447244
 C         4.395456        -1.514664         1.374103
 C         3.057953        -0.767612         1.434955
 O         1.996467        -1.466465         0.868282
 H         0.430837         1.061511        -0.456044
 H        -0.804337        -0.150286         0.163653
 H         0.557111         0.411670         1.435338
 H         2.010315        -2.236474        -1.724472
 H         0.957399        -0.760834        -2.483186
 H         2.595051         0.912956        -1.476691
 H         4.774634         0.498047         0.603758
 H         4.237333        -2.549221         1.086371
 H         5.178026        -1.359456         2.052437
 H         2.814951        -0.005979         2.224505
