19
Iteration:  2248charge 0 multiplicity 1
 C         0.488230         0.243288         0.378287
 C         1.480096        -0.642553        -0.244553
 C         1.603117        -1.165728        -1.691265
 C         2.611379        -0.081201        -1.153021
 O         3.869867        -0.636893        -0.958573
 C         4.168623        -0.327769         0.488843
 C         4.321485        -1.527439         1.550075
 C         3.020747        -0.771660         1.351495
 O         2.026603        -1.467267         0.762772
 H         0.940032         1.007989         1.065810
 H        -0.171753         0.850873        -0.292071
 H        -0.107449        -0.355240         1.011290
 H         2.006190        -2.190613        -1.642513
 H         0.809211        -1.057245        -2.441621
 H         2.526995         0.986693        -1.536900
 H         4.782818         0.474852         0.637497
 H         4.325377        -2.644905         1.318343
 H         5.076109        -1.413827         2.391633
 H         2.583576        -0.148395         2.169123
