19
Iteration:  1621
 C         0.412818         0.302658         0.228236
 C         1.494078        -0.630592        -0.270061
 C         1.527701        -1.213111        -1.693957
 C         2.492916        -0.148032        -1.170900
 O         3.919182        -0.572064        -0.785436
 C         4.199784        -0.340076         0.583523
 C         4.426535        -1.590456         1.366763
 C         3.150361        -0.771901         1.445543
 O         1.976511        -1.427554         0.782206
 H         0.786107         0.820573         1.122893
 H         0.041214         0.993478        -0.446999
 H        -0.493733        -0.299768         0.625100
 H         1.918728        -2.255179        -1.733492
 H         0.704757        -1.110149        -2.412958
 H         2.482482         0.942713        -1.321097
 H         4.745369         0.494884         0.716402
 H         4.463064        -2.513313         0.755114
 H         5.209927        -1.536923         2.148029
 H         2.800211        -0.274131         2.443426
