19
Iteration:   376charge 0 multiplicity 1
 C         0.314753         0.319702         0.218140
 C         1.506758        -0.588913        -0.201075
 C         1.530670        -1.359409        -1.575284
 C         2.574456        -0.109233        -1.176462
 O         3.971574        -0.512560        -0.875695
 C         4.205750        -0.334380         0.485023
 C         4.438492        -1.613542         1.347557
 C         3.127004        -0.790855         1.442083
 O         1.948795        -1.435295         0.845922
 H         0.705442         1.350299         0.593750
 H        -0.346456         0.444756        -0.582769
 H        -0.347294        -0.013283         1.080248
 H         1.992247        -2.317535        -1.353754
 H         0.763172        -1.179428        -2.317455
 H         2.502642         0.870139        -1.669719
 H         4.640581         0.741298         0.738445
 H         4.249888        -2.537197         0.779510
 H         5.178012        -1.621333         2.143937
 H         3.003392        -0.282896         2.299789
