19
Iteration:  1497charge 0 multiplicity 1
 C         0.268617         0.324755         0.121667
 C         1.429615        -0.521981        -0.201544
 C         1.609667        -1.342216        -1.487868
 C         2.505970        -0.218179        -1.151031
 O         4.019298        -0.349391        -0.854220
 C         4.261045        -0.423206         0.516957
 C         4.507555        -1.649382         1.195901
 C         3.143434        -0.892888         1.452467
 O         1.858690        -1.372286         0.921116
 H         0.504103         0.954957         0.926357
 H         0.041607         1.075186        -0.795386
 H        -0.538604        -0.317995         0.555925
 H         1.992649        -2.346279        -1.248261
 H         1.067917        -1.110007        -2.411810
 H         2.503113         0.658023        -1.818343
 H         4.832928         0.524051         0.895962
 H         4.247955        -2.553102         0.640216
 H         5.181829        -1.638729         2.053831
 H         2.846957        -0.444551         2.492365
