19
Iteration:  2765charge 0 multiplicity 1
 C         0.403664         0.285888         0.354277
 C         1.504148        -0.560349        -0.253300
 C         1.550801        -1.252727        -1.503067
 C         2.582570        -0.156820        -1.206375
 O         3.920536        -0.720418        -0.955721
 C         4.122886        -0.326116         0.446347
 C         4.359146        -1.502437         1.481502
 C         3.076322        -0.689241         1.401464
 O         2.063052        -1.427645         0.733662
 H        -0.048680        -0.368372         1.194843
 H         0.715747         1.106546         0.996418
 H        -0.329722         0.498030        -0.455760
 H         1.882093        -2.275882        -1.507150
 H         0.767824        -1.039330        -2.085942
 H         2.646451         0.777678        -1.677412
 H         4.722593         0.623445         0.584943
 H         4.190424        -2.480536         1.212870
 H         5.197145        -1.325487         2.063630
 H         2.766133        -0.158162         2.282533
