19
Iteration:  2441charge 0 multiplicity 1
 C         0.371354         0.246549         0.095879
 C         1.524026        -0.649951        -0.213555
 C         1.494107        -1.143442        -1.625241
 C         2.585398        -0.077576        -1.114638
 O         3.904872        -0.647940        -0.827271
 C         4.115722        -0.338516         0.460121
 C         4.478220        -1.563905         1.330896
 C         3.161543        -0.849834         1.498484
 O         1.955197        -1.382765         0.940779
 H         0.627737         1.191845         0.531729
 H        -0.206097         0.536852        -0.855151
 H        -0.476647        -0.316028         0.615232
 H         1.947838        -2.095170        -1.813684
 H         0.682912        -0.766468        -2.179845
 H         2.808547         0.887718        -1.601886
 H         4.691316         0.631285         0.644269
 H         4.561495        -2.503769         0.779000
 H         5.303728        -1.480734         2.079646
 H         2.970820        -0.506670         2.525680
