19
Iteration:   711charge 0 multiplicity 1
 C         0.204612         0.189985         0.015116
 C         1.460913        -0.565612        -0.183537
 C         1.615898        -1.223792        -1.515257
 C         2.555851        -0.088419        -1.151044
 O         3.903468        -0.445286        -0.867368
 C         4.240369        -0.365954         0.522776
 C         4.495056        -1.782075         1.201288
 C         3.209435        -0.805281         1.513861
 O         1.932761        -1.297400         0.998921
 H         0.515254         1.090294         0.549675
 H        -0.363494         0.264265        -0.907105
 H        -0.448655        -0.372011         0.774374
 H         2.129374        -2.176642        -1.278846
 H         0.892195        -1.190230        -2.347355
 H         2.584903         0.896089        -1.679818
 H         4.911370         0.339478         0.728621
 H         4.132851        -2.575056         0.513863
 H         5.241936        -1.928795         2.005972
 H         3.077527        -0.188878         2.421674
