19
Iteration:  2317
 C         0.234322         0.314004        -0.015930
 C         1.446405        -0.589430        -0.150659
 C         1.688782        -1.238310        -1.522330
 C         2.566668        -0.162580        -1.074994
 O         3.869896        -0.561017        -0.848932
 C         4.178978        -0.388248         0.499229
 C         4.534251        -1.613974         1.202162
 C         3.178696        -0.877371         1.475094
 O         1.902541        -1.305547         0.979339
 H         0.123144         0.853524         0.988977
 H         0.286568         1.162463        -0.675262
 H        -0.721289        -0.205359        -0.092919
 H         2.203565        -2.191897        -1.474473
 H         0.818781        -1.062701        -2.187721
 H         2.532878         0.775321        -1.566938
 H         4.826177         0.593655         0.699246
 H         4.528387        -2.475137         0.602383
 H         5.324741        -1.669761         1.892419
 H         3.215163        -0.670957         2.501884
