19
Iteration:  1212charge 0 multiplicity 1
 C         0.174897         0.205794         0.034635
 C         1.513134        -0.537402        -0.180076
 C         1.581592        -1.208476        -1.524164
 C         2.569326        -0.106558        -1.136777
 O         3.854336        -0.503702        -0.867869
 C         4.252347        -0.378664         0.450898
 C         4.499721        -1.670061         1.315973
 C         3.222755        -0.893431         1.464974
 O         1.977446        -1.328936         0.961632
 H         0.169199         0.898866         0.863189
 H        -0.029326         0.963530        -0.844477
 H        -0.714098        -0.580239         0.194470
 H         2.070648        -2.158522        -1.622092
 H         0.760269        -0.933943        -2.188796
 H         2.407382         0.846682        -1.498237
 H         4.922042         0.433176         0.703546
 H         4.391531        -2.719150         1.030649
 H         5.191564        -1.479907         2.133233
 H         3.197620        -0.307969         2.344168
