19
Iteration:  4281charge 0 multiplicity 1
 C         0.477737         0.376897         0.247472
 C         1.470927        -0.606157        -0.230203
 C         1.518370        -1.253493        -1.618012
 C         2.624137        -0.199320        -1.148572
 O         3.919487        -0.523429        -0.843220
 C         4.198671        -0.274185         0.564332
 C         4.402125        -1.518579         1.319444
 C         3.074091        -0.943562         1.444723
 O         1.938902        -1.468961         0.794708
 H        -0.097371         0.832574        -0.595398
 H        -0.353645        -0.178762         0.853634
 H         0.874393         1.218808         0.792339
 H         1.620055        -2.338971        -1.574073
 H         0.783475        -0.801098        -2.300307
 H         2.514045         0.768876        -1.605938
 H         4.706383         0.629721         0.796928
 H         4.576051        -2.429101         0.755710
 H         5.119040        -1.792920         2.116837
 H         2.770649        -0.441259         2.302589
