19
Iteration:  4567charge 0 multiplicity 1
 C         0.290603         0.157441         0.370891
 C         1.533035        -0.515148        -0.256043
 C         1.489467        -1.049505        -1.630327
 C         2.598879        -0.169242        -1.221360
 O         3.982605        -0.714127        -0.936007
 C         4.262324        -0.478186         0.447584
 C         4.339844        -1.525256         1.465856
 C         3.122887        -0.708381         1.454207
 O         1.998420        -1.375732         0.850581
 H        -0.300222         0.998741        -0.161926
 H        -0.542581        -0.575363         0.546373
 H         0.635278         0.606912         1.226532
 H         1.753469        -2.133463        -1.812601
 H         0.945370        -0.716480        -2.654860
 H         2.696491         0.874909        -1.730440
 H         4.815389         0.418184         0.562119
 H         4.193432        -2.519649         1.012291
 H         4.995163        -1.542345         2.314220
 H         2.912050         0.053021         2.211397
