19
Iteration:  4319
 C         0.551880         0.391543         0.304474
 C         1.530426        -0.589555        -0.249497
 C         1.621639        -1.308540        -1.575317
 C         2.492066        -0.103753        -1.199860
 O         3.855989        -0.445334        -0.925112
 C         4.101508        -0.371214         0.480229
 C         4.353350        -1.591394         1.453410
 C         3.031093        -0.899135         1.490547
 O         2.017702        -1.518275         0.768239
 H         0.358227         1.053496        -0.593132
 H        -0.322088         0.022427         0.782280
 H         1.131577         1.022307         1.147773
 H         2.052755        -2.365817        -1.574123
 H         0.890337        -1.202599        -2.360859
 H         2.334768         0.889914        -1.740954
 H         4.826580         0.541949         0.573356
 H         4.163792        -2.493630         0.838642
 H         5.135508        -1.379334         2.168704
 H         2.700826        -0.438436         2.533484
