19
Iteration:  4052charge 0 multiplicity 1
 C         0.305394         0.182358         0.312343
 C         1.518412        -0.509075        -0.183130
 C         1.555714        -1.097390        -1.628377
 C         2.646525        -0.149426        -1.243100
 O         3.920030        -0.669866        -0.919339
 C         4.192635        -0.447153         0.461844
 C         4.413571        -1.568226         1.460281
 C         3.114334        -0.753750         1.506163
 O         1.976116        -1.394091         0.794812
 H        -0.063472         0.982613        -0.331680
 H        -0.514476        -0.592540         0.371801
 H         0.624586         0.683212         1.250589
 H         1.547084        -2.127305        -1.893463
 H         0.885880        -0.607741        -2.422779
 H         2.459373         0.874104        -1.679157
 H         4.773978         0.431075         0.696124
 H         4.202280        -2.570008         1.050260
 H         5.167762        -1.350699         2.185532
 H         3.062784        -0.021332         2.248568
