19
Iteration:  2533charge 0 multiplicity 1
 C         0.429410         0.381249         0.313055
 C         1.438453        -0.655370        -0.213235
 C         1.531980        -1.322222        -1.656013
 C         2.537699        -0.232313        -1.148763
 O         3.904039        -0.558464        -0.883505
 C         4.204007        -0.344988         0.501659
 C         4.415957        -1.486164         1.434401
 C         3.094379        -0.754532         1.441518
 O         2.006718        -1.471295         0.763676
 H         0.318098         0.386441         1.454687
 H         0.733818         1.429516         0.086452
 H        -0.471376         0.340944        -0.310869
 H         1.972664        -2.416683        -1.641817
 H         0.869114        -0.924875        -2.454758
 H         2.356319         0.791950        -1.619201
 H         4.812895         0.529082         0.536482
 H         4.521942        -2.478461         0.908748
 H         5.182657        -1.430875         2.254793
 H         2.746188        -0.214369         2.346417
