19
Iteration:  1888charge 0 multiplicity 1
 C         0.264159         0.299486         0.257400
 C         1.483977        -0.596857        -0.236914
 C         1.680752        -1.330420        -1.589199
 C         2.567899        -0.099109        -1.187179
 O         3.896692        -0.472943        -0.857619
 C         4.243660        -0.360293         0.491725
 C         4.345440        -1.658968         1.302825
 C         3.126587        -0.846545         1.439845
 O         1.945161        -1.346676         0.899697
 H         0.813124         1.024734         1.019964
 H        -0.257783         0.960546        -0.581363
 H        -0.493408        -0.287394         0.692790
 H         2.292799        -2.199841        -1.434345
 H         0.980363        -1.390678        -2.414834
 H         2.719456         0.765023        -1.833302
 H         4.992617         0.540125         0.730355
 H         4.401627        -2.481703         0.606573
 H         4.958778        -1.728805         2.174171
 H         3.006501        -0.399570         2.344028
