19
Iteration:  1628
 C         0.466708         0.322911         0.248498
 C         1.432473        -0.699056        -0.246888
 C         1.538533        -1.193278        -1.653631
 C         2.560163        -0.143315        -1.185069
 O         3.904511        -0.549991        -0.816328
 C         4.196846        -0.303483         0.522755
 C         4.427042        -1.552222         1.383800
 C         3.134839        -0.815244         1.456337
 O         1.956902        -1.479853         0.772244
 H         0.893549         0.797119         1.093534
 H         0.032098         1.137681        -0.431834
 H        -0.421239        -0.266674         0.515498
 H         1.806119        -2.202130        -1.746087
 H         0.752328        -0.940826        -2.323216
 H         2.407657         0.876853        -1.588993
 H         4.825669         0.584457         0.924727
 H         4.420506        -2.565462         1.029794
 H         5.011755        -1.491839         2.264512
 H         2.849278        -0.280422         2.370177
