19
Iteration:  2188charge 0 multiplicity 1
 C         0.406870         0.446441         0.165639
 C         1.462496        -0.603552        -0.219086
 C         1.580005        -1.219171        -1.587444
 C         2.558063        -0.157606        -1.154270
 O         3.864989        -0.601866        -0.794609
 C         4.118489        -0.256463         0.555502
 C         4.526872        -1.510392         1.338750
 C         3.070867        -1.028853         1.403504
 O         1.992081        -1.493444         0.795507
 H         0.885383         1.205883         0.805693
 H        -0.037848         0.932960        -0.674195
 H        -0.494631        -0.118628         0.714469
 H         1.956091        -2.278665        -1.501273
 H         0.806307        -0.941399        -2.286526
 H         2.779845         0.750479        -1.694340
 H         4.603134         0.791012         0.830355
 H         4.727314        -2.391663         0.825320
 H         5.075694        -1.202797         2.192198
 H         2.737916        -0.703814         2.458937
