19
Iteration:  3192
 C         0.329685         0.341157         0.147650
 C         1.460797        -0.596754        -0.170457
 C         1.530055        -1.249816        -1.562439
 C         2.516961        -0.194147        -1.128939
 O         3.887686        -0.508751        -0.856795
 C         4.204762        -0.310384         0.518072
 C         4.469410        -1.656594         1.315253
 C         3.182804        -0.835843         1.466174
 O         2.018147        -1.402059         0.852339
 H         0.673547         1.328657         0.615382
 H        -0.265543         0.456270        -0.783533
 H        -0.443512        -0.165961         0.769705
 H         1.862732        -2.285274        -1.594695
 H         0.796348        -1.067817        -2.255429
 H         2.486424         0.744600        -1.664173
 H         4.943249         0.589812         0.700447
 H         4.358856        -2.411587         0.472980
 H         5.203261        -1.694042         2.121278
 H         2.997621        -0.321005         2.387978
