19
Iteration:   637
 C         0.354645         0.307450         0.134989
 C         1.434458        -0.665383        -0.192312
 C         1.555652        -1.237342        -1.524094
 C         2.564101        -0.109207        -1.164687
 O         3.894217        -0.529687        -0.870866
 C         4.150196        -0.364102         0.528873
 C         4.423917        -1.580582         1.325890
 C         3.170807        -0.759519         1.429631
 O         2.023367        -1.460964         0.870471
 H         0.441673         0.678862         1.240230
 H         0.386535         0.989527        -0.631868
 H        -0.686682        -0.235190         0.037804
 H         1.998937        -2.252232        -1.513757
 H         0.773847        -0.964969        -2.257478
 H         2.498632         0.925178        -1.546192
 H         4.880422         0.450443         0.745663
 H         4.376510        -2.557739         0.809709
 H         5.218270        -1.441114         2.084030
 H         3.023269        -0.268242         2.297670
