19
Iteration:  3812charge 0 multiplicity 1
 C         0.434424         0.333783         0.249615
 C         1.499223        -0.629509        -0.227346
 C         1.566913        -1.182781        -1.582820
 C         2.526644        -0.088658        -1.096954
 O         3.873717        -0.552991        -0.917276
 C         4.207687        -0.442822         0.430390
 C         4.393198        -1.588268         1.457847
 C         3.108294        -0.805280         1.409479
 O         1.994881        -1.499406         0.782684
 H         0.221635         1.213822        -0.344773
 H        -0.432158        -0.234729         0.265949
 H         0.515779         0.868880         1.165607
 H         2.171531        -2.248060        -1.618398
 H         0.682039        -0.952497        -2.236811
 H         2.568745         1.034160        -1.331888
 H         4.799643         0.493279         0.659094
 H         4.443225        -2.637571         1.243995
 H         4.937175        -1.202220         2.239185
 H         2.797010        -0.091804         2.139521
