19
Iteration:  1111charge 0 multiplicity 1
 C         0.462114         0.401835         0.306573
 C         1.468102        -0.669058        -0.247151
 C         1.519913        -1.212037        -1.681931
 C         2.562501        -0.194290        -1.198799
 O         3.864233        -0.628933        -0.860983
 C         4.148817        -0.284116         0.469181
 C         4.432192        -1.431554         1.468985
 C         3.058548        -0.898805         1.519538
 O         2.057643        -1.525190         0.736317
 H         1.159746         1.044363         0.930370
 H        -0.290360         0.973713        -0.366178
 H        -0.230584        -0.103317         0.954604
 H         1.967075        -2.233347        -1.802392
 H         0.835435        -0.739479        -2.420620
 H         2.532215         0.781779        -1.653108
 H         4.560413         0.804760         0.676207
 H         4.517576        -2.444909         1.036743
 H         5.078327        -1.288146         2.365326
 H         2.732377        -0.313855         2.348415
