19
Iteration:  3331
 C         0.366788         0.270647         0.111701
 C         1.542533        -0.596556        -0.156930
 C         1.542798        -1.129390        -1.615287
 C         2.542822        -0.129885        -1.135586
 O         3.827309        -0.649357        -0.839198
 C         4.189741        -0.323131         0.501111
 C         4.464558        -1.591771         1.346657
 C         3.128839        -0.887036         1.467787
 O         2.003746        -1.394275         0.864620
 H         0.018856         0.753373        -0.838686
 H        -0.493732        -0.312394         0.613575
 H         0.763985         0.927978         0.940520
 H         1.888043        -2.038396        -1.992712
 H         0.706276        -0.687973        -2.084583
 H         2.551268         0.909618        -1.365577
 H         4.687704         0.624190         0.578578
 H         4.538983        -2.467650         0.664006
 H         5.192337        -1.571081         2.204701
 H         2.950003        -0.229132         2.360656
