19
Iteration:  3322
 C         0.352958         0.281291         0.168874
 C         1.486362        -0.651389        -0.194197
 C         1.537770        -1.114010        -1.673561
 C         2.569776        -0.114384        -1.112516
 O         3.905457        -0.668893        -0.880964
 C         4.165868        -0.328136         0.494768
 C         4.424338        -1.567663         1.364507
 C         3.174989        -0.795775         1.454268
 O         1.994522        -1.466631         0.909137
 H        -0.002355         1.132712        -0.457600
 H        -0.514490        -0.205632         0.419178
 H         0.669269         0.858914         1.048973
 H         1.979321        -1.988118        -1.949311
 H         0.667805        -0.821745        -2.269438
 H         2.461872         0.942201        -1.340453
 H         4.771414         0.655266         0.404829
 H         4.372938        -2.498383         0.771777
 H         5.130337        -1.646409         2.267665
 H         2.960219        -0.218173         2.347471
