19
Iteration:   289
 C         0.319906         0.329967         0.315242
 C         1.527160        -0.615666        -0.226943
 C         1.503633        -1.212339        -1.542501
 C         2.597540        -0.187479        -1.234014
 O         3.864862        -0.687929        -0.947928
 C         4.213861        -0.356898         0.507783
 C         4.423165        -1.428496         1.441532
 C         3.042685        -0.706918         1.513261
 O         2.118968        -1.515908         0.763597
 H         0.445644         0.628318         1.452094
 H         0.324428         1.219095        -0.261033
 H        -0.695893        -0.196345         0.223693
 H         1.795976        -2.253942        -1.638818
 H         0.976895        -0.892064        -2.414088
 H         2.467368         0.776259        -1.768371
 H         4.645391         0.681521         0.580634
 H         4.248273        -2.309502         0.778828
 H         5.232981        -1.653811         2.160222
 H         2.726541        -0.041951         2.259293
