19
Iteration:  3081charge 0 multiplicity 1
 C         0.333932         0.339105         0.166442
 C         1.486263        -0.536074        -0.229493
 C         1.558059        -1.212662        -1.513342
 C         2.567071        -0.174480        -1.252458
 O         3.838067        -0.660572        -0.874409
 C         4.147012        -0.348311         0.512343
 C         4.555728        -1.494959         1.326578
 C         3.166723        -0.875864         1.496649
 O         1.970529        -1.437712         0.848260
 H         0.289908         0.658181         1.258225
 H         0.302600         1.093290        -0.551023
 H        -0.698318        -0.082669         0.071268
 H         1.891407        -2.183520        -1.407624
 H         0.768274        -0.929833        -2.222275
 H         2.480483         0.870257        -1.507336
 H         4.667813         0.667647         0.848191
 H         4.821467        -2.460828         0.901611
 H         5.339980        -1.353418         2.142937
 H         2.859162        -0.502526         2.516834
