19
Iteration:  2851charge 0 multiplicity 1
 C         0.325149         0.370087         0.093180
 C         1.402634        -0.622757        -0.221751
 C         1.579274        -1.318325        -1.461749
 C         2.555019        -0.178856        -1.084701
 O         3.875477        -0.561330        -0.853039
 C         4.228127        -0.345822         0.511540
 C         4.524003        -1.608434         1.205706
 C         3.156442        -0.857497         1.447397
 O         1.973905        -1.326000         0.900881
 H        -0.187743         0.389058         1.139535
 H         0.647199         1.348856        -0.266686
 H        -0.632813         0.111449        -0.451979
 H         2.110916        -2.323532        -1.423068
 H         0.885457        -1.267008        -2.293258
 H         2.459917         0.801346        -1.500777
 H         4.608828         0.609174         0.856231
 H         4.558239        -2.468140         0.639679
 H         5.152327        -1.482424         2.040737
 H         2.999004        -0.212134         2.339645
