19
Iteration:  2844
 C         0.267135         0.369875         0.048500
 C         1.439828        -0.589455        -0.133013
 C         1.637786        -1.276794        -1.460178
 C         2.562576        -0.201971        -1.097536
 O         3.840913        -0.577036        -0.857111
 C         4.165297        -0.351753         0.463826
 C         4.506480        -1.559674         1.217235
 C         3.141536        -0.855152         1.479503
 O         1.987565        -1.399016         0.893481
 H         0.155952         0.294053         1.127611
 H         0.805617         1.311393        -0.277906
 H        -0.591211         0.276537        -0.658590
 H         2.020663        -2.226514        -1.299795
 H         0.883052        -1.053350        -2.162300
 H         2.469548         0.812958        -1.511768
 H         4.765609         0.644578         0.681650
 H         4.667134        -2.520825         0.625698
 H         5.242859        -1.603428         2.067327
 H         3.109859        -0.172504         2.328072
