19
Iteration:   317charge 0 multiplicity 1
 C         0.448134         0.255347         0.304062
 C         1.520869        -0.629640        -0.265175
 C         1.470418        -1.182494        -1.633113
 C         2.559528        -0.145661        -1.129731
 O         3.853756        -0.708318        -0.874260
 C         4.211147        -0.354614         0.461593
 C         4.486915        -1.397396         1.422537
 C         3.056928        -0.832160         1.388013
 O         1.957397        -1.455460         0.834464
 H         0.847476         0.798612         1.121272
 H         0.237566         1.056144        -0.462427
 H        -0.455935        -0.296784         0.587890
 H         1.876136        -2.201954        -1.669264
 H         0.908984        -0.715162        -2.490136
 H         2.548640         0.858797        -1.616874
 H         4.599476         0.695072         0.516193
 H         4.915959        -2.351055         1.151716
 H         5.034541        -1.052995         2.318306
 H         2.894432        -0.172625         2.316636
