19
Iteration:  4709
 C         0.338077         0.300962         0.205313
 C         1.535589        -0.618796        -0.189704
 C         1.616757        -1.240748        -1.513611
 C         2.556447        -0.133250        -1.218342
 O         3.916705        -0.382847        -0.936487
 C         4.259115        -0.522673         0.454599
 C         4.303445        -1.683931         1.336599
 C         3.113305        -0.816757         1.452065
 O         1.955895        -1.328427         0.946366
 H        -0.018956         0.803332        -0.798485
 H        -0.466728        -0.476050         0.407572
 H         0.600578         1.064641         0.942213
 H         2.075530        -2.305875        -1.519695
 H         0.896866        -1.063991        -2.314956
 H         2.500202         0.833773        -1.732737
 H         4.896839         0.268366         0.711572
 H         4.208227        -2.695648         1.045391
 H         5.007515        -1.607897         2.154270
 H         3.103679        -0.278393         2.343081
