19
Iteration:  1227
 C         0.187592         0.200157         0.000894
 C         1.431868        -0.583517        -0.097702
 C         1.625341        -1.195740        -1.484755
 C         2.541008        -0.051821        -1.062815
 O         3.924283        -0.488860        -0.914353
 C         4.269191        -0.499336         0.488668
 C         4.446110        -1.677765         1.254736
 C         3.203709        -0.733731         1.474698
 O         1.990956        -1.350451         0.964331
 H         0.278026         0.846819         0.881118
 H        -0.068991         0.497278        -0.946719
 H        -0.647682        -0.605018         0.033269
 H         1.948216        -2.260271        -1.421033
 H         0.938542        -0.912893        -2.279762
 H         2.570627         0.908098        -1.752922
 H         4.771740         0.397036         0.734235
 H         4.260358        -2.484313         0.542967
 H         5.324635        -1.885062         1.876500
 H         2.964918         0.006206         2.376332
