19
Iteration:  4925
 C         0.213608         0.211360         0.224176
 C         1.518575        -0.548142        -0.231209
 C         1.660521        -1.113807        -1.581998
 C         2.609376        -0.081699        -1.246299
 O         3.865309        -0.623354        -0.892786
 C         4.288835        -0.564269         0.418965
 C         4.365452        -1.673346         1.445671
 C         3.190894        -0.801058         1.431830
 O         1.953498        -1.235928         0.954181
 H        -0.031019         0.904812        -0.629389
 H        -0.336006        -0.715108         0.201564
 H         0.259111         0.734417         1.170817
 H         1.982372        -2.052855        -1.896897
 H         0.765556        -0.727485        -2.258426
 H         2.571489         0.905542        -1.629999
 H         4.760192         0.442576         0.696169
 H         4.240237        -2.666867         1.033570
 H         5.020416        -1.559705         2.326767
 H         2.941404        -0.092391         2.190193
