19
Iteration:  1695charge 0 multiplicity 1
 C         0.439007         0.394625         0.349073
 C         1.454983        -0.641198        -0.269120
 C         1.561979        -1.156213        -1.774412
 C         2.602961        -0.252453        -1.202403
 O         3.874111        -0.664201        -0.791552
 C         4.063069        -0.245815         0.597249
 C         4.477894        -1.500695         1.375181
 C         3.099676        -0.876113         1.473920
 O         2.038479        -1.477612         0.772324
 H         0.752270         1.001525         1.148733
 H        -0.121683         0.995590        -0.387255
 H        -0.443660        -0.308661         0.615526
 H         1.759478        -2.191466        -1.974159
 H         0.849318        -0.781827        -2.421357
 H         2.644597         0.803012        -1.575078
 H         4.502076         0.762900         0.593370
 H         4.583168        -2.420811         0.830797
 H         5.157234        -1.395434         2.202813
 H         2.762211        -0.299753         2.397970
