19
Iteration:  4915charge 0 multiplicity 1
 C         0.292655         0.205223         0.159338
 C         1.538688        -0.513220        -0.178578
 C         1.616566        -1.144328        -1.608750
 C         2.600736        -0.018524        -1.162520
 O         3.853877        -0.684343        -0.919773
 C         4.270373        -0.475005         0.450021
 C         4.390497        -1.660880         1.424073
 C         3.127521        -0.825770         1.486972
 O         1.947976        -1.280508         0.893868
 H        -0.171036         0.840711        -0.694533
 H        -0.644797        -0.443069         0.353504
 H         0.343142         0.789280         1.092812
 H         2.095301        -2.063053        -1.836052
 H         0.617991        -0.910883        -2.194514
 H         2.692316         0.961858        -1.626678
 H         5.055841         0.310429         0.534172
 H         4.408334        -2.709078         1.099614
 H         5.158415        -1.393873         2.197699
 H         3.009211        -0.183512         2.360252
