19
Iteration:  2261charge 0 multiplicity 1
 C         0.344181         0.261790         0.350954
 C         1.478831        -0.595785        -0.282758
 C         1.616823        -1.141605        -1.614913
 C         2.550699        -0.132776        -1.177576
 O         3.907693        -0.606792        -0.846906
 C         4.218926        -0.478080         0.445504
 C         4.339345        -1.512789         1.476979
 C         3.091281        -0.695451         1.411306
 O         2.032534        -1.509693         0.739595
 H         0.917910         0.846554         1.175905
 H        -0.136972         0.900589        -0.357945
 H        -0.371049        -0.340195         0.815159
 H         2.166960        -2.119432        -1.645775
 H         0.869205        -1.008019        -2.370036
 H         2.598260         0.856906        -1.554994
 H         4.673150         0.541223         0.670791
 H         4.120911        -2.436063         1.032795
 H         5.008283        -1.317632         2.257855
 H         2.868460         0.039689         2.090673
