19
Iteration:  3208charge 0 multiplicity 1
 C         0.373506         0.374788         0.150174
 C         1.547773        -0.615130        -0.196076
 C         1.623772        -1.249384        -1.581386
 C         2.502987        -0.113550        -1.175377
 O         3.791791        -0.555145        -0.848097
 C         4.128673        -0.362773         0.461668
 C         4.510282        -1.571586         1.241651
 C         3.142472        -0.934733         1.510504
 O         1.995989        -1.434341         0.937890
 H         0.777283         1.389061         0.203583
 H        -0.305050         0.602481        -0.758444
 H        -0.099938         0.017352         1.075431
 H         2.186063        -2.183804        -1.479560
 H         0.842860        -0.970235        -2.410371
 H         2.343357         0.943730        -1.510241
 H         4.407963         0.571367         0.775146
 H         4.544281        -2.568169         0.938044
 H         5.226530        -1.386547         2.053902
 H         2.954964        -0.350353         2.461645
