19
Iteration:  4339charge 0 multiplicity 1
 C         0.421337         0.389154         0.295602
 C         1.446889        -0.625908        -0.213795
 C         1.573681        -1.195200        -1.559715
 C         2.585638        -0.194172        -1.225548
 O         3.931841        -0.515122        -0.870485
 C         4.175546        -0.367632         0.547744
 C         4.443335        -1.587576         1.351210
 C         3.045934        -0.886758         1.387477
 O         1.983655        -1.470138         0.788286
 H         0.083145         1.112918        -0.538918
 H        -0.473652        -0.228450         0.555459
 H         0.763354         0.887979         1.281473
 H         1.871954        -2.272969        -1.431509
 H         0.783853        -0.954406        -2.251165
 H         2.580022         0.850654        -1.528697
 H         4.579477         0.586609         0.671688
 H         4.412265        -2.626773         0.971515
 H         4.992935        -1.225858         2.212271
 H         2.891433        -0.182885         2.089738
