19
Iteration:  2531charge 0 multiplicity 1
 C         0.428351         0.386324         0.324479
 C         1.423908        -0.665079        -0.219487
 C         1.527998        -1.317385        -1.655295
 C         2.555034        -0.244087        -1.171414
 O         3.915412        -0.551800        -0.882868
 C         4.199988        -0.338637         0.511810
 C         4.421662        -1.479775         1.439783
 C         3.076034        -0.766113         1.428006
 O         2.022892        -1.455988         0.773129
 H         0.342740         0.362858         1.411023
 H         0.805723         1.431246         0.121456
 H        -0.488971         0.257551        -0.247851
 H         1.908873        -2.386918        -1.690197
 H         0.852772        -0.952204        -2.441592
 H         2.306085         0.764363        -1.547493
 H         4.815549         0.435089         0.516133
 H         4.429586        -2.453938         0.926535
 H         5.136004        -1.451131         2.228532
 H         2.722027        -0.218911         2.299851
