19
Iteration:  1105
 C         0.426620         0.411013         0.301963
 C         1.509704        -0.691403        -0.281243
 C         1.559716        -1.183762        -1.609635
 C         2.548001        -0.169919        -1.195956
 O         3.914486        -0.679429        -0.847961
 C         4.124511        -0.252194         0.485154
 C         4.438452        -1.452249         1.433310
 C         3.062016        -0.846151         1.460515
 O         2.022631        -1.523401         0.742098
 H         0.983045         1.018529         0.968937
 H        -0.149325         0.914613        -0.411623
 H        -0.137213        -0.243218         1.062097
 H         1.876102        -2.179794        -1.798727
 H         0.749032        -0.888297        -2.250473
 H         2.484382         0.859361        -1.601576
 H         4.340456         0.721770         0.653961
 H         4.468648        -2.425545         0.955735
 H         5.062337        -1.470997         2.313733
 H         2.742243        -0.283351         2.382759
