19
Iteration:  3040
 C         0.499922         0.352127         0.308299
 C         1.446700        -0.739588        -0.200581
 C         1.551284        -1.208344        -1.593172
 C         2.586637        -0.254010        -1.273975
 O         3.908069        -0.538517        -0.878851
 C         4.170934        -0.304813         0.538519
 C         4.386756        -1.483252         1.342902
 C         3.045952        -0.769275         1.480185
 O         1.991702        -1.484930         0.772155
 H         1.068742         1.151403         0.839844
 H        -0.081066         0.824578        -0.578999
 H        -0.018670        -0.192233         1.158971
 H         1.828399        -2.181394        -1.482317
 H         0.859812        -0.948006        -2.273606
 H         2.543824         0.791556        -1.476822
 H         4.822460         0.616044         0.525211
 H         4.124403        -2.433193         0.897447
 H         4.981924        -1.571824         2.288693
 H         2.654308        -0.230071         2.293470
