19
Iteration:  2752charge 0 multiplicity 1
 C         0.435712         0.261231         0.329282
 C         1.567603        -0.577376        -0.186865
 C         1.488590        -1.240305        -1.570781
 C         2.580953        -0.223298        -1.263948
 O         3.811694        -0.636002        -0.876740
 C         4.210323        -0.364804         0.432852
 C         4.386872        -1.463271         1.437959
 C         3.097478        -0.734984         1.453415
 O         2.056780        -1.432410         0.793558
 H        -0.358246        -0.422304         0.736668
 H         0.799723         1.094931         0.890387
 H        -0.030907         0.778655        -0.526360
 H         1.800036        -2.268354        -1.608690
 H         0.802200        -0.886160        -2.393873
 H         2.487446         0.713476        -1.820129
 H         4.756349         0.519360         0.526893
 H         4.384828        -2.500568         1.148197
 H         4.909994        -1.273221         2.338824
 H         2.784021         0.018007         2.172379
