19
Iteration:  1220
 C         0.175400         0.176004        -0.008108
 C         1.493706        -0.526173        -0.152652
 C         1.592345        -1.219383        -1.484640
 C         2.548801        -0.056707        -1.074093
 O         3.888084        -0.488750        -0.876793
 C         4.239075        -0.460708         0.443772
 C         4.491959        -1.675697         1.296508
 C         3.214336        -0.823986         1.465750
 O         1.985493        -1.352405         0.981686
 H         0.121068         0.879038         0.899100
 H        -0.035041         0.835590        -0.927275
 H        -0.613794        -0.474451         0.204665
 H         1.884715        -2.262514        -1.640742
 H         0.948009        -0.887475        -2.327019
 H         2.527307         0.862633        -1.668290
 H         4.919723         0.506143         0.658613
 H         4.320601        -2.614828         0.744345
 H         5.300292        -1.640493         2.036673
 H         3.023476        -0.131462         2.231162
