19
Iteration:  2100charge 0 multiplicity 1
 C         0.134631         0.117946         0.036007
 C         1.459959        -0.485208        -0.199146
 C         1.717711        -1.167164        -1.458440
 C         2.614461        -0.084049        -1.189964
 O         3.873979        -0.395690        -0.888257
 C         4.305803        -0.545797         0.481080
 C         4.369389        -1.770984         1.284450
 C         3.202795        -0.895676         1.467069
 O         1.955767        -1.163915         0.986193
 H         0.205944         0.722322         0.970552
 H        -0.205815         0.683432        -0.775788
 H        -0.706506        -0.638198         0.297505
 H         2.293337        -2.071840        -1.540496
 H         0.873482        -1.302362        -2.180862
 H         2.546491         0.832196        -1.740736
 H         5.111366         0.211787         0.703970
 H         4.312947        -2.718765         0.835275
 H         5.060983        -1.710418         2.024417
 H         3.014467        -0.494255         2.508101
