19
Iteration:  2240
 C         0.522592         0.264882         0.399627
 C         1.549327        -0.647268        -0.276467
 C         1.588696        -1.186264        -1.666565
 C         2.545274        -0.105654        -1.219911
 O         3.876845        -0.630061        -0.957157
 C         4.139324        -0.338952         0.498875
 C         4.317264        -1.521104         1.523192
 C         3.038349        -0.786427         1.485743
 O         1.999092        -1.487476         0.724087
 H         0.953863         1.123039         1.053361
 H        -0.102670         0.635500        -0.377853
 H        -0.106580        -0.255416         1.109465
 H         1.888451        -2.221354        -1.944609
 H         0.946894        -0.759350        -2.419761
 H         2.616445         0.913040        -1.418170
 H         4.816061         0.626200         0.685905
 H         4.439658        -2.500075         1.220804
 H         4.778033        -1.147712         2.377698
 H         2.781656        -0.122660         2.215148
