19
Iteration:  4062
 C         0.386787         0.225840         0.302732
 C         1.530825        -0.545417        -0.267575
 C         1.454519        -1.118709        -1.589530
 C         2.643138        -0.156560        -1.192185
 O         3.946044        -0.655206        -0.913427
 C         4.148869        -0.383526         0.515127
 C         4.355635        -1.610424         1.392391
 C         3.094614        -0.728345         1.494222
 O         2.050831        -1.389474         0.794482
 H        -0.124939         0.824716        -0.459798
 H        -0.429699        -0.619473         0.617397
 H         0.339086         0.693938         1.300056
 H         1.689682        -2.144542        -1.716269
 H         0.783224        -0.608819        -2.323345
 H         2.841325         0.785327        -1.795808
 H         4.826970         0.491564         0.600251
 H         4.416739        -2.636572         1.064280
 H         5.079088        -1.527218         2.153962
 H         2.700678        -0.167627         2.313987
