19
Iteration:  1608
 C         0.287800         0.255791         0.217275
 C         1.469437        -0.557521        -0.216163
 C         1.589739        -1.226629        -1.655228
 C         2.608203        -0.108910        -1.169275
 O         3.839104        -0.606837        -0.822868
 C         4.216558        -0.348757         0.533816
 C         4.438690        -1.635209         1.323220
 C         3.084231        -0.847381         1.510615
 O         2.057369        -1.338377         0.841766
 H         0.569038         0.964614         0.904402
 H        -0.081518         0.807777        -0.654245
 H        -0.559653        -0.434301         0.554948
 H         2.155851        -2.113223        -1.721561
 H         0.915976        -0.949544        -2.412751
 H         2.568286         0.885810        -1.698564
 H         4.729494         0.530475         0.786613
 H         4.322828        -2.444092         0.606368
 H         5.203775        -1.730197         2.054374
 H         2.935297        -0.199904         2.468822
