19
Iteration:  4224charge 0 multiplicity 1
 C         0.269874         0.215998         0.146179
 C         1.484728        -0.637613        -0.219887
 C         1.556165        -1.094989        -1.647631
 C         2.576597        -0.075177        -1.052907
 O         3.848221        -0.663055        -0.827569
 C         4.224323        -0.400031         0.461477
 C         4.413940        -1.680631         1.349936
 C         3.197626        -0.731090         1.421414
 O         2.041203        -1.334216         0.908203
 H         0.137038         0.840177        -0.701335
 H        -0.643363        -0.410808         0.361098
 H         0.334455         0.777817         1.052886
 H         2.014714        -2.002371        -2.101499
 H         0.811079        -0.872018        -2.390960
 H         2.641508         1.009082        -1.403622
 H         5.012914         0.385470         0.829969
 H         4.139313        -2.535934         0.752824
 H         5.168628        -1.680461         2.114053
 H         2.914198        -0.142756         2.416019
