19
Iteration:   563charge 0 multiplicity 1
 C         0.438825         0.322070         0.353693
 C         1.482833        -0.622347        -0.232632
 C         1.500070        -1.172486        -1.690002
 C         2.585805        -0.212652        -1.246773
 O         3.871530        -0.648330        -0.848155
 C         4.137770        -0.287109         0.536113
 C         4.379572        -1.477192         1.448380
 C         3.072988        -0.812203         1.424824
 O         2.077863        -1.516179         0.768970
 H         1.070025         1.134618         0.820746
 H        -0.145985         0.680913        -0.477128
 H        -0.121012        -0.158261         1.101848
 H         1.953015        -2.182967        -1.734004
 H         0.807840        -0.729981        -2.426402
 H         2.478780         0.804478        -1.590748
 H         4.602181         0.796074         0.460711
 H         4.684704        -2.456648         1.030395
 H         5.052358        -1.172217         2.253236
 H         2.690863        -0.380661         2.418714
