19
Iteration:   678
 C         0.196825         0.158162         0.120389
 C         1.493453        -0.573150        -0.214802
 C         1.657677        -1.239576        -1.560691
 C         2.562256        -0.109422        -1.173675
 O         3.910230        -0.501519        -0.822478
 C         4.207945        -0.371316         0.492897
 C         4.475832        -1.740448         1.202194
 C         3.175892        -0.792941         1.461435
 O         1.933056        -1.223190         0.969364
 H         0.401336         0.752472         1.004243
 H        -0.104266         0.945031        -0.600165
 H        -0.657734        -0.535164         0.388682
 H         2.164765        -2.178936        -1.368762
 H         0.797071        -1.166292        -2.205699
 H         2.553022         0.859537        -1.719704
 H         4.889655         0.328291         0.664630
 H         4.467918        -2.763644         0.822636
 H         5.109380        -1.833205         2.073741
 H         3.086133        -0.206727         2.377216
