19
Iteration:  3067charge 0 multiplicity 1
 C         0.349044         0.385478         0.245241
 C         1.510952        -0.574372        -0.204714
 C         1.573758        -1.265043        -1.596960
 C         2.539779        -0.175718        -1.160094
 O         3.843459        -0.628429        -0.833667
 C         4.125030        -0.315899         0.494960
 C         4.549840        -1.505593         1.345290
 C         3.114593        -0.931131         1.452834
 O         1.980907        -1.413365         0.812182
 H         0.720627         0.881940         1.155946
 H         0.214799         1.230967        -0.435318
 H        -0.464079        -0.307325         0.467198
 H         2.052869        -2.351061        -1.523045
 H         0.824353        -1.111663        -2.533845
 H         2.651951         0.723592        -1.871988
 H         4.511405         0.696757         0.509903
 H         4.540703        -2.456570         0.783781
 H         5.107947        -1.284647         2.251132
 H         2.929054        -0.200324         2.340835
