19
Iteration:  4668charge 0 multiplicity 1
 C         0.441953         0.427344         0.168411
 C         1.465745        -0.532799        -0.193868
 C         1.595622        -1.389493        -1.496514
 C         2.571816        -0.282227        -1.243947
 O         3.853173        -0.405871        -0.794960
 C         4.170239        -0.313692         0.599943
 C         4.388687        -1.687843         1.126584
 C         3.114544        -0.901211         1.505641
 O         1.994093        -1.365102         0.865459
 H         0.086002         1.041186        -0.593303
 H        -0.441378         0.053858         0.566800
 H         0.692130         1.259380         0.836593
 H         2.106528        -2.408523        -1.469510
 H         0.950413        -1.272759        -2.318074
 H         2.357037         0.618868        -1.892425
 H         4.835178         0.579334         0.960027
 H         4.359600        -2.548245         0.458901
 H         5.091412        -1.682966         1.961723
 H         2.860679        -0.570570         2.488215
