19
Iteration:   390
 C         0.309516         0.308254         0.217763
 C         1.417660        -0.602027        -0.247233
 C         1.643264        -1.276321        -1.525643
 C         2.557919        -0.246932        -1.243352
 O         3.915675        -0.419429        -0.907473
 C         4.197857        -0.401625         0.520461
 C         4.394745        -1.616806         1.303895
 C         3.134663        -0.883825         1.463661
 O         2.001406        -1.316328         0.943088
 H         0.700943         1.273105         0.578608
 H        -0.450569         0.648667        -0.658579
 H        -0.119267        -0.317218         0.936853
 H         2.077872        -2.244576        -1.567632
 H         0.930235        -1.099469        -2.323990
 H         2.404279         0.644841        -1.802319
 H         4.850117         0.353632         0.799328
 H         4.479430        -2.557388         0.841050
 H         5.072229        -1.569915         2.130307
 H         2.952088        -0.152105         2.341358
