19
Iteration:  2019charge 0 multiplicity 1
 C         0.347192         0.381182         0.236264
 C         1.432777        -0.570594        -0.189845
 C         1.595119        -1.331262        -1.556786
 C         2.518555        -0.191002        -1.209723
 O         3.965229        -0.402303        -0.865661
 C         4.190785        -0.371797         0.500948
 C         4.441452        -1.638061         1.379071
 C         3.103503        -0.889019         1.485212
 O         1.968864        -1.468213         0.781121
 H         0.813992         1.308802         0.728413
 H        -0.080665         0.882751        -0.735541
 H        -0.534243        -0.002630         0.707946
 H         1.895370        -2.378453        -1.591270
 H         0.932018        -0.963600        -2.322682
 H         2.560227         0.724162        -1.819000
 H         4.847727         0.607136         0.891377
 H         4.456053        -2.575986         0.767196
 H         5.070361        -1.405972         2.308195
 H         2.979203        -0.373168         2.393601
