19
Iteration:  3857charge 0 multiplicity 1
 C         0.270021         0.169299         0.130891
 C         1.575857        -0.505028        -0.191031
 C         1.522911        -1.110423        -1.553567
 C         2.633262        -0.119844        -1.121383
 O         3.826073        -0.738948        -0.790919
 C         4.228889        -0.358192         0.484256
 C         4.420183        -1.590542         1.286035
 C         3.136752        -0.816560         1.444404
 O         2.010716        -1.315375         0.848502
 H         0.020818         1.134094        -0.329772
 H        -0.462673        -0.552682         0.067021
 H         0.330771         0.559552         1.169904
 H         2.049533        -2.140266        -1.691277
 H         0.784584        -0.615492        -2.279340
 H         2.577407         0.925701        -1.580676
 H         4.787360         0.537762         0.642083
 H         4.366965        -2.392329         0.578779
 H         5.164273        -1.726114         2.095931
 H         2.976923        -0.317268         2.372157
