19
Iteration:  1170charge 0 multiplicity 1
 C         0.431815         0.337597         0.283589
 C         1.481941        -0.632415        -0.181818
 C         1.632457        -1.215138        -1.602700
 C         2.602656        -0.230267        -1.194128
 O         3.890232        -0.588612        -0.806014
 C         4.134841        -0.254402         0.500241
 C         4.410794        -1.517027         1.256094
 C         3.105664        -0.792762         1.444295
 O         1.967672        -1.492598         0.802249
 H         0.492881         0.877867         1.159655
 H         0.104373         1.084587        -0.404039
 H        -0.409436        -0.371272         0.644317
 H         1.801729        -2.261203        -1.599722
 H         0.908701        -1.047906        -2.372560
 H         2.629884         0.771764        -1.576751
 H         4.535087         0.639936         0.676868
 H         4.255748        -2.475351         0.772706
 H         5.107577        -1.397382         2.069714
 H         2.687770        -0.301553         2.338969
