19
Iteration:  2252charge 0 multiplicity 1
 C         0.446360         0.251158         0.365899
 C         1.462924        -0.627544        -0.247840
 C         1.604519        -1.147222        -1.689743
 C         2.618881        -0.089744        -1.145973
 O         3.876300        -0.627968        -0.926999
 C         4.172769        -0.379836         0.469908
 C         4.335242        -1.529044         1.554262
 C         3.031093        -0.748318         1.332890
 O         2.036562        -1.477377         0.768907
 H         1.021839         0.973078         1.045860
 H        -0.158472         0.875359        -0.236905
 H        -0.199746        -0.453786         0.936364
 H         2.115433        -2.118517        -1.531149
 H         0.771264        -1.113418        -2.376854
 H         2.482260         0.858819        -1.557072
 H         4.842381         0.611663         0.644860
 H         4.215905        -2.512457         1.253059
 H         5.059290        -1.441812         2.287179
 H         2.621580        -0.179877         2.098791
