19
Iteration:  4074
 C         0.358431         0.278380         0.293933
 C         1.557390        -0.528643        -0.205853
 C         1.471020        -1.157652        -1.600722
 C         2.611226        -0.176708        -1.227125
 O         3.909913        -0.635917        -0.807743
 C         4.238794        -0.352753         0.508743
 C         4.329277        -1.572960         1.387550
 C         3.075209        -0.805321         1.430869
 O         2.082447        -1.422216         0.741248
 H        -0.109661         0.881780        -0.489560
 H        -0.353730        -0.579087         0.616039
 H         0.806874         0.991355         0.988307
 H         1.765270        -2.192878        -1.615373
 H         0.514012        -0.904206        -2.178680
 H         2.525158         0.855570        -1.669887
 H         4.796996         0.524197         0.747117
 H         4.091859        -2.456156         0.752125
 H         4.974958        -1.525856         2.247179
 H         2.860837        -0.307588         2.332635
