19
Iteration:  3949charge 0 multiplicity 1
 C         0.334953         0.459378         0.238214
 C         1.413044        -0.579636        -0.185892
 C         1.677230        -1.341759        -1.512517
 C         2.583209        -0.216631        -1.280347
 O         3.912024        -0.406207        -0.860605
 C         4.175936        -0.330463         0.558586
 C         4.387741        -1.678737         1.250402
 C         3.094351        -0.939966         1.456879
 O         1.951822        -1.386472         0.849042
 H        -0.051378         0.934231        -0.672827
 H        -0.231814        -0.111469         0.996542
 H         0.995527         1.171582         0.763168
 H         2.206638        -2.185367        -1.137981
 H         1.151388        -1.453158        -2.353265
 H         2.425890         0.726797        -1.724524
 H         4.732530         0.610280         0.721542
 H         4.341321        -2.515624         0.515276
 H         5.127693        -1.871010         2.007303
 H         2.915410        -0.513054         2.482343
