19
Iteration:  3824
 C         0.337162         0.302490         0.224410
 C         1.461548        -0.601323        -0.185777
 C         1.565035        -1.100820        -1.662230
 C         2.566141        -0.152240        -1.127765
 O         3.846761        -0.563709        -0.918543
 C         4.233427        -0.492447         0.461609
 C         4.461716        -1.549022         1.490313
 C         3.123372        -0.816240         1.422982
 O         1.989142        -1.445943         0.858171
 H         0.339813         1.148836        -0.507457
 H        -0.569842        -0.184618         0.254037
 H         0.635479         0.425942         1.256299
 H         1.961385        -2.221816        -1.849512
 H         0.949500        -0.765500        -2.557635
 H         2.371999         0.901783        -1.565853
 H         4.766698         0.423420         0.663542
 H         4.422863        -2.558570         1.151657
 H         5.278322        -1.436562         2.185923
 H         2.924180        -0.095860         2.170997
