19
Iteration:  1269charge 0 multiplicity 1
 C         0.324781         0.160995         0.158829
 C         1.473539        -0.587631        -0.275995
 C         1.711723        -1.269762        -1.546559
 C         2.512171        -0.154050        -1.242394
 O         3.879090        -0.356071        -0.874260
 C         4.211458        -0.452208         0.574419
 C         4.453432        -1.775105         1.236849
 C         3.204233        -0.850096         1.490330
 O         1.888839        -1.150368         0.981249
 H         0.555830         0.929441         0.921991
 H        -0.220902         0.621084        -0.734705
 H        -0.645681        -0.485796         0.713344
 H         2.207653        -2.238447        -1.428380
 H         0.965723        -1.410250        -2.301419
 H         2.319418         0.854298        -1.724663
 H         4.793288         0.355079         0.793049
 H         4.213142        -2.682099         0.680137
 H         5.345872        -1.869196         1.869354
 H         2.921792        -0.249182         2.474314
