19
Iteration:  3026
 C         0.547088         0.321954         0.294417
 C         1.554180        -0.616026        -0.240331
 C         1.484132        -1.266209        -1.610851
 C         2.566375        -0.178905        -1.190240
 O         3.926202        -0.511086        -0.914723
 C         4.108660        -0.334906         0.476140
 C         4.311880        -1.541982         1.447380
 C         3.039003        -0.756018         1.476900
 O         2.058034        -1.544815         0.807460
 H         1.037945         1.334445         0.489692
 H        -0.232520         0.558231        -0.367545
 H        -0.048682        -0.062494         1.155482
 H         1.740923        -2.280738        -1.878695
 H         0.695162        -0.934241        -2.329844
 H         2.376001         0.708020        -1.760441
 H         4.694628         0.586619         0.867718
 H         4.168769        -2.530096         0.980059
 H         5.189653        -1.410144         2.102882
 H         2.737475        -0.045394         2.331036
