19
Iteration:  2799
 C         0.371525         0.318740         0.281923
 C         1.459056        -0.623267        -0.241698
 C         1.553775        -1.245906        -1.634669
 C         2.550972        -0.202465        -1.159954
 O         3.846025        -0.648813        -0.860367
 C         4.210549        -0.322314         0.430497
 C         4.467136        -1.540440         1.456999
 C         3.178000        -0.733370         1.390924
 O         1.978218        -1.381518         0.837978
 H         0.146864        -0.286684         1.183882
 H         0.724398         1.367011         0.178033
 H        -0.617233         0.266460        -0.304117
 H         1.686970        -2.301880        -1.725145
 H         0.901024        -0.779151        -2.230381
 H         2.432464         0.699779        -1.723105
 H         4.933210         0.533191         0.753125
 H         4.415016        -2.557107         1.109788
 H         5.259541        -1.336430         2.180696
 H         2.875468        -0.361772         2.362169
