19
Iteration:  1654charge 0 multiplicity 1
 C         0.515216         0.431511         0.336033
 C         1.557072        -0.612758        -0.154476
 C         1.536965        -1.190866        -1.653895
 C         2.571243        -0.173653        -1.205822
 O         3.966756        -0.563145        -0.917824
 C         4.015487        -0.339970         0.485161
 C         4.405188        -1.445765         1.470604
 C         3.020722        -0.885589         1.445690
 O         2.017222        -1.635342         0.707013
 H         0.787232         1.013526         1.225042
 H         0.276270         1.118607        -0.390045
 H        -0.451582        -0.150750         0.497543
 H         1.865030        -2.275698        -1.567762
 H         0.707831        -0.982124        -2.363406
 H         2.345508         0.872462        -1.461707
 H         4.325953         0.525506         0.869203
 H         4.651870        -2.412281         0.987803
 H         5.123489        -1.139449         2.284172
 H         2.605826        -0.229301         2.320459
