19
Iteration:  4900charge 0 multiplicity 1
 C         0.286711         0.329703         0.092501
 C         1.468072        -0.559012        -0.243124
 C         1.563783        -1.081540        -1.579251
 C         2.591122        -0.105819        -1.105652
 O         3.834915        -0.712968        -0.842619
 C         4.180624        -0.448255         0.476476
 C         4.441091        -1.604979         1.337379
 C         3.195692        -0.781380         1.516785
 O         2.031467        -1.412369         0.869734
 H         0.014623         0.838515        -0.777398
 H        -0.382650        -0.384652         0.448255
 H         0.691844         1.033898         0.802633
 H         2.010626        -2.109557        -1.516886
 H         0.942843        -0.941293        -2.379900
 H         2.556982         0.955607        -1.322285
 H         4.803791         0.541172         0.663560
 H         4.251574        -2.560912         0.870444
 H         5.111398        -1.524084         2.133903
 H         2.849425        -0.261904         2.421290
