19
Iteration:  4440charge 0 multiplicity 1
 C         0.336329         0.274060         0.206345
 C         1.549109        -0.543282        -0.217972
 C         1.532752        -1.311697        -1.541353
 C         2.513546        -0.183551        -1.250088
 O         3.929779        -0.425878        -0.843475
 C         4.228606        -0.413636         0.543650
 C         4.342231        -1.687146         1.286258
 C         3.141232        -0.801635         1.480904
 O         2.040422        -1.328753         0.839706
 H        -0.194020         0.844250        -0.563909
 H        -0.299899        -0.442615         0.727608
 H         0.518194         1.096228         1.094075
 H         1.825787        -2.324869        -1.496870
 H         0.782267        -1.092897        -2.334463
 H         2.580466         0.838772        -1.646850
 H         5.018288         0.398889         0.723979
 H         3.943649        -2.517443         0.706528
 H         5.071644        -1.873976         2.037769
 H         2.948618        -0.271497         2.435482
