19
Iteration:  4630
 C         0.326499         0.453074         0.130458
 C         1.489231        -0.599308        -0.128200
 C         1.576609        -1.234157        -1.575706
 C         2.526870        -0.215786        -1.147857
 O         3.936140        -0.555088        -0.847355
 C         4.150206        -0.342052         0.487655
 C         4.546742        -1.607873         1.264907
 C         3.119855        -0.897301         1.425142
 O         1.880797        -1.445590         0.929088
 H         0.202035         0.818438        -0.938121
 H        -0.554779        -0.056300         0.674328
 H         0.783978         1.111301         0.881826
 H         2.052017        -2.189925        -1.737946
 H         0.866202        -0.842359        -2.353893
 H         2.502918         0.795437        -1.554914
 H         4.692399         0.542952         0.679064
 H         4.774824        -2.556770         0.723250
 H         5.145681        -1.378080         2.147159
 H         3.063824        -0.347323         2.417244
