19
Iteration:   859
 C         0.355510         0.203489         0.278728
 C         1.494744        -0.661259        -0.214667
 C         1.543875        -1.101596        -1.619058
 C         2.602921        -0.141103        -1.106059
 O         3.882397        -0.735087        -0.877701
 C         4.131251        -0.317420         0.409552
 C         4.469928        -1.431042         1.416838
 C         3.083564        -0.798860         1.488949
 O         2.040657        -1.451646         0.751140
 H         0.444800         0.564432         1.410112
 H         0.356849         1.128968        -0.436525
 H        -0.521736        -0.321239        -0.012664
 H         1.603677        -2.147730        -1.671314
 H         0.873100        -0.574492        -2.215642
 H         2.609754         0.849079        -1.478479
 H         4.722775         0.717181         0.571583
 H         4.444610        -2.438943         1.118841
 H         4.991970        -1.140356         2.255121
 H         2.964925        -0.117130         2.345270
