19
Iteration:  1381
 C         0.318896         0.247311         0.335682
 C         1.479948        -0.588516        -0.145441
 C         1.591080        -1.115505        -1.577556
 C         2.654442        -0.157416        -1.239162
 O         3.888595        -0.705809        -0.891101
 C         4.183323        -0.292866         0.426937
 C         4.355351        -1.484731         1.421107
 C         3.094289        -0.746360         1.459746
 O         2.059386        -1.511492         0.743750
 H         0.329450         0.856235         1.296709
 H         0.192356         0.913134        -0.456168
 H        -0.519321        -0.515836         0.634185
 H         1.768593        -2.194240        -1.691766
 H         0.890987        -0.717914        -2.308968
 H         2.655101         0.878780        -1.704387
 H         4.754339         0.605537         0.530820
 H         4.212840        -2.462861         0.965999
 H         5.001802        -1.511524         2.289857
 H         2.862092        -0.153620         2.337951
