19
Iteration:  1805
 C         0.177895         0.279426        -0.000505
 C         1.457117        -0.574348        -0.116896
 C         1.753020        -1.340113        -1.409356
 C         2.613601        -0.080581        -1.225873
 O         3.950010        -0.395041        -0.816038
 C         4.227699        -0.424631         0.486422
 C         4.433946        -1.738847         1.039758
 C         3.192946        -0.909035         1.434652
 O         1.822137        -1.215087         1.069629
 H         0.348882         0.907357         0.801160
 H         0.007024         0.791256        -0.893089
 H        -0.644221        -0.351983         0.556980
 H         2.303509        -2.274493        -1.414784
 H         0.987608        -1.435921        -2.228954
 H         2.331391         0.929479        -1.679722
 H         4.895089         0.294251         0.939880
 H         4.309606        -2.754594         0.563897
 H         5.107970        -1.717270         1.937499
 H         3.160747        -0.582273         2.584696
