19
Iteration:  3622charge 0 multiplicity 1
 C         0.333615         0.364719         0.093749
 C         1.454004        -0.626077        -0.225986
 C         1.518054        -1.179208        -1.639891
 C         2.511709        -0.132264        -1.192928
 O         3.879488        -0.508428        -0.835143
 C         4.190338        -0.425968         0.497398
 C         4.483678        -1.645719         1.353448
 C         3.200917        -0.905460         1.579212
 O         2.019546        -1.409238         0.913230
 H         0.244682         1.075850        -0.690338
 H        -0.588850        -0.229881         0.274211
 H         0.517555         1.007147         0.947868
 H         1.883184        -2.147990        -2.018203
 H         0.760845        -0.827559        -2.287338
 H         2.414134         0.859222        -1.593896
 H         4.779813         0.514396         0.916219
 H         4.356581        -2.620857         0.761224
 H         5.278032        -1.536530         2.111523
 H         3.100653        -0.244155         2.472082
