19
Iteration:   570
 C         0.480947         0.345405         0.347983
 C         1.529910        -0.638543        -0.239040
 C         1.504766        -1.176762        -1.681713
 C         2.608972        -0.209695        -1.205157
 O         3.869495        -0.685457        -0.861314
 C         4.106567        -0.198280         0.493739
 C         4.404944        -1.487030         1.448391
 C         3.041944        -0.818418         1.417900
 O         2.057120        -1.516533         0.772048
 H         0.847173         1.203451         1.009304
 H        -0.214741         0.651172        -0.384352
 H        -0.209639        -0.245797         1.105279
 H         1.763745        -2.215417        -1.730117
 H         0.848199        -0.871805        -2.478561
 H         2.524551         0.859770        -1.519344
 H         4.687888         0.676262         0.673687
 H         4.578285        -2.372781         0.872464
 H         4.990966        -1.176616         2.299618
 H         2.662373        -0.514509         2.306443
