19
Iteration:  2249charge 0 multiplicity 1
 C         0.476097         0.242399         0.374356
 C         1.473502        -0.639050        -0.243280
 C         1.602523        -1.160298        -1.693620
 C         2.616584        -0.080975        -1.149733
 O         3.870625        -0.635169        -0.952107
 C         4.169000        -0.339420         0.484350
 C         4.325783        -1.528976         1.553357
 C         3.020268        -0.765146         1.344540
 O         2.030326        -1.468413         0.766040
 H         0.970665         1.014514         1.071481
 H        -0.164443         0.856353        -0.267046
 H        -0.110931        -0.368075         0.974404
 H         2.038143        -2.180706        -1.605856
 H         0.800831        -1.079570        -2.420290
 H         2.511200         0.944368        -1.540966
 H         4.807063         0.516001         0.639788
 H         4.300362        -2.604187         1.314142
 H         5.069568        -1.434271         2.353488
 H         2.595724        -0.182444         2.124815
