19
Iteration:   215
 C         0.277963         0.263733         0.037842
 C         1.496957        -0.592761        -0.141559
 C         1.627990        -1.332105        -1.448987
 C         2.475772        -0.102370        -1.139457
 O         3.866646        -0.539337        -0.856220
 C         4.228406        -0.301123         0.519425
 C         4.432836        -1.675024         1.224426
 C         3.184262        -0.852506         1.446992
 O         1.991138        -1.285464         0.952230
 H         0.596964         1.104300         0.666106
 H         0.088228         0.673942        -0.983832
 H        -0.590978        -0.220893         0.408598
 H         2.105542        -2.253254        -1.706813
 H         0.720313        -1.125291        -1.998566
 H         2.625708         0.736447        -1.800953
 H         4.783061         0.578812         0.747267
 H         4.340488        -2.393874         0.397155
 H         5.176137        -1.961035         1.997749
 H         3.176164        -0.260987         2.480799
