19
Iteration:  3461
 C         0.171523         0.313259         0.108111
 C         1.448078        -0.583159        -0.150093
 C         1.595183        -1.149153        -1.485266
 C         2.633916        -0.171277        -1.199103
 O         3.963360        -0.568403        -0.873822
 C         4.201692        -0.319789         0.520019
 C         4.435765        -1.645577         1.267151
 C         3.191451        -0.924428         1.427039
 O         1.965293        -1.358589         0.934036
 H         0.136886         1.202358        -0.519654
 H        -0.701169        -0.446595        -0.145795
 H         0.229284         0.790528         1.095827
 H         1.885165        -2.152812        -1.479803
 H         0.888023        -1.003201        -2.271345
 H         2.560053         0.807599        -1.603095
 H         4.675366         0.563813         0.670519
 H         4.473638        -2.560123         0.617732
 H         5.162954        -1.727681         2.143124
 H         3.141508        -0.308596         2.397194
