19
Iteration:  2966
 C         0.278689         0.253279         0.172579
 C         1.524072        -0.554559        -0.160868
 C         1.583369        -1.141280        -1.587373
 C         2.603500        -0.171359        -1.169167
 O         3.867825        -0.700982        -0.844202
 C         4.148287        -0.247638         0.544671
 C         4.450109        -1.596274         1.307767
 C         3.174767        -0.890883         1.430595
 O         1.965459        -1.344894         0.878533
 H         0.676535         1.196308         0.346741
 H        -0.322430         0.218072        -0.784732
 H        -0.170008        -0.039654         1.093280
 H         2.026124        -2.164732        -1.816945
 H         0.781831        -0.737273        -2.214405
 H         2.627647         0.811014        -1.737028
 H         4.623356         0.655391         0.458880
 H         4.495554        -2.524375         0.789946
 H         5.095006        -1.572396         2.221182
 H         3.116862        -0.355871         2.358703
