19
Iteration:  3617
 C         0.383398         0.350261         0.089665
 C         1.443416        -0.612435        -0.200895
 C         1.528158        -1.186809        -1.674473
 C         2.521804        -0.100591        -1.185991
 O         3.893674        -0.511685        -0.878846
 C         4.146940        -0.409569         0.551171
 C         4.509569        -1.646004         1.367883
 C         3.173894        -0.916286         1.539772
 O         2.010820        -1.436947         0.936554
 H         0.253371         1.064322        -0.825945
 H        -0.563249        -0.086440         0.437942
 H         0.453681         1.072291         0.964846
 H         1.951823        -2.183736        -1.843423
 H         0.611103        -0.740364        -2.188092
 H         2.281052         0.863574        -1.717442
 H         4.700209         0.438588         0.701459
 H         4.427627        -2.528354         0.835622
 H         5.248716        -1.573979         2.148361
 H         3.118505        -0.324867         2.439810
