19
Iteration:  3603
 C         0.432788         0.388276         0.146780
 C         1.559621        -0.620180        -0.167356
 C         1.574196        -1.156238        -1.564760
 C         2.555068        -0.122009        -1.151472
 O         3.848955        -0.529266        -0.945994
 C         4.159574        -0.337443         0.520723
 C         4.489254        -1.604961         1.349162
 C         3.092861        -0.941599         1.450544
 O         1.909484        -1.493753         0.899358
 H         0.159982         0.796986        -0.784226
 H        -0.495636        -0.131620         0.533865
 H         0.915292         1.159159         0.704809
 H         1.906117        -2.184178        -1.550165
 H         0.767019        -1.102145        -2.333636
 H         2.574546         0.949653        -1.444211
 H         4.561841         0.689287         0.823481
 H         4.641824        -2.575943         0.778431
 H         5.116069        -1.481047         2.276713
 H         2.793080        -0.455001         2.454569
