19
Iteration:  3160charge 0 multiplicity 1
 C         0.251244         0.215578         0.259178
 C         1.482360        -0.502971        -0.244321
 C         1.582149        -1.249235        -1.522621
 C         2.550773        -0.202673        -1.180865
 O         3.953506        -0.478433        -0.915696
 C         4.188031        -0.385386         0.441158
 C         4.391991        -1.693843         1.367129
 C         3.170690        -0.777316         1.449454
 O         2.001881        -1.315082         0.888422
 H         0.299879         0.684024         1.268793
 H         0.105223         1.098013        -0.434097
 H        -0.531482        -0.554278         0.130411
 H         1.953624        -2.228822        -1.233866
 H         0.894813        -1.074205        -2.227972
 H         2.531238         0.596450        -1.902821
 H         5.007249         0.384594         0.676132
 H         4.323290        -2.583558         0.667379
 H         5.198068        -1.742374         2.113706
 H         2.964852        -0.154314         2.267529
