19
Iteration:  4540
 C         0.276290         0.291281         0.294019
 C         1.472599        -0.546905        -0.213022
 C         1.607092        -1.146005        -1.551647
 C         2.591054        -0.143345        -1.170694
 O         3.840633        -0.671442        -0.880931
 C         4.255513        -0.422937         0.459926
 C         4.407349        -1.562091         1.387142
 C         3.134081        -0.807448         1.436643
 O         2.025796        -1.414110         0.751212
 H        -0.061134         1.062780        -0.402017
 H        -0.693561        -0.180104         0.557454
 H         0.701652         0.929235         1.188803
 H         1.846786        -2.178229        -1.648251
 H         1.024298        -0.891418        -2.350923
 H         2.636455         0.844362        -1.554656
 H         4.832659         0.539216         0.518078
 H         4.510029        -2.600396         1.099209
 H         4.977891        -1.345312         2.310611
 H         2.873471        -0.198068         2.360129
