19
Iteration:  4935
 C         0.182310         0.146604         0.175282
 C         1.502032        -0.506650        -0.211722
 C         1.588531        -1.120823        -1.641096
 C         2.629600        -0.131990        -1.187809
 O         3.941321        -0.596207        -0.918370
 C         4.244989        -0.524477         0.469237
 C         4.351928        -1.733962         1.422685
 C         3.198007        -0.695698         1.425236
 O         1.971738        -1.252046         0.962708
 H        -0.179862         0.988321        -0.357423
 H        -0.618004        -0.516497         0.374943
 H         0.353644         0.549325         1.171573
 H         1.877633        -2.117736        -1.616305
 H         1.008850        -0.680967        -2.501061
 H         2.640397         0.815296        -1.658704
 H         4.928411         0.405042         0.692205
 H         4.001190        -2.688961         1.080457
 H         5.076871        -1.826401         2.211923
 H         3.374322         0.023182         2.188629
