19
Iteration:  4744charge 0 multiplicity 1
 C         0.201654         0.184751         0.125234
 C         1.462266        -0.538518        -0.200716
 C         1.591909        -1.111308        -1.637869
 C         2.582597        -0.077722        -1.113049
 O         3.848096        -0.745912        -0.792449
 C         4.329847        -0.436670         0.441613
 C         4.395053        -1.622202         1.296587
 C         3.204575        -0.760218         1.512030
 O         2.031633        -1.275492         0.900021
 H        -0.141537         0.758783        -0.786446
 H        -0.655996        -0.400181         0.406118
 H         0.121661         0.891592         1.027914
 H         2.082086        -2.148119        -1.785977
 H         0.843811        -0.824137        -2.351911
 H         2.644341         1.019956        -1.435697
 H         5.000355         0.528633         0.547332
 H         4.257476        -2.486870         0.584196
 H         4.996388        -1.719837         2.208701
 H         3.003785        -0.364803         2.501674
