19
Iteration:  2332charge 0 multiplicity 1
 C         0.263770         0.366806        -0.001076
 C         1.449673        -0.623593        -0.168471
 C         1.686169        -1.325912        -1.528767
 C         2.499397        -0.097864        -1.104947
 O         3.869204        -0.508538        -0.853126
 C         4.255547        -0.292885         0.502964
 C         4.438448        -1.724214         1.157094
 C         3.233999        -0.922694         1.497584
 O         1.915195        -1.314245         1.055251
 H         0.434648         0.765570         0.929259
 H         0.327134         1.038425        -0.903528
 H        -0.750447        -0.188846        -0.081855
 H         2.219374        -2.272331        -1.408514
 H         1.232463        -1.359812        -2.504438
 H         2.303577         0.981433        -1.407839
 H         4.699740         0.698764         0.739578
 H         4.477947        -2.551239         0.356999
 H         4.968598        -1.702488         2.157891
 H         3.048270        -0.227307         2.365068
