19
Iteration:  2578
 C         0.263255         0.314720         0.054372
 C         1.444251        -0.576047        -0.147353
 C         1.544169        -1.188411        -1.601683
 C         2.592974        -0.223921        -1.132793
 O         3.878767        -0.663753        -0.836001
 C         4.237036        -0.290430         0.530298
 C         4.521486        -1.540687         1.244961
 C         3.193259        -0.897435         1.487282
 O         1.949931        -1.342073         0.945627
 H        -0.062304        -0.112604         1.082401
 H         0.589485         1.334561         0.313475
 H        -0.404731         0.175195        -0.835660
 H         1.849929        -2.274994        -1.738062
 H         0.731882        -0.876627        -2.337361
 H         2.422911         0.741408        -1.700394
 H         4.560319         0.768678         0.712253
 H         4.575185        -2.550874         0.767604
 H         5.321339        -1.397808         2.056900
 H         3.038419        -0.318701         2.428084
