19
Iteration:  2693charge 0 multiplicity 1
 C         0.276906         0.378340         0.088258
 C         1.554185        -0.576964        -0.204749
 C         1.532691        -1.328869        -1.444538
 C         2.594273        -0.147051        -1.164491
 O         3.843389        -0.645066        -0.906166
 C         4.106184        -0.258675         0.475044
 C         4.506814        -1.567067         1.252612
 C         3.200682        -0.864921         1.520354
 O         1.992842        -1.382568         0.923209
 H        -0.661252        -0.028093        -0.256950
 H         0.152264         0.474148         1.191313
 H         0.489141         1.288738        -0.502540
 H         2.185477        -2.268528        -1.347901
 H         0.662862        -1.389199        -2.188926
 H         2.574797         0.858776        -1.671091
 H         4.491810         0.795842         0.599326
 H         4.641333        -2.521348         0.681463
 H         5.190367        -1.474065         2.179466
 H         3.070354        -0.342804         2.493140
