19
Iteration:  4865
 C         0.526370         0.448352         0.166386
 C         1.430054        -0.625378        -0.262527
 C         1.484420        -1.230773        -1.586939
 C         2.597739        -0.221564        -1.207523
 O         3.920339        -0.566990        -0.826744
 C         4.136302        -0.312830         0.545980
 C         4.472053        -1.538728         1.335878
 C         3.066500        -0.940568         1.488027
 O         1.947469        -1.456813         0.818088
 H        -0.086652         0.962133        -0.551210
 H        -0.268386         0.058148         0.807221
 H         0.898972         1.160278         0.899733
 H         1.793461        -2.267421        -1.506806
 H         0.860247        -0.957813        -2.437482
 H         2.523464         0.868977        -1.495832
 H         4.593176         0.664542         0.754807
 H         4.646413        -2.496930         0.826052
 H         5.095362        -1.419382         2.266914
 H         2.934527        -0.569216         2.536704
