19
Iteration:  4730
 C         0.227115         0.237544         0.129591
 C         1.541807        -0.561868        -0.209078
 C         1.574499        -1.147920        -1.606973
 C         2.567251        -0.098669        -1.170344
 O         3.841294        -0.631833        -0.917271
 C         4.233139        -0.397641         0.569919
 C         4.392911        -1.731079         1.333069
 C         3.196831        -0.745289         1.533973
 O         2.025565        -1.275345         0.914450
 H        -0.162044         0.704304        -0.818286
 H        -0.376081        -0.662566         0.386149
 H         0.544995         0.778373         0.963284
 H         2.146381        -2.120545        -1.765218
 H         0.764558        -0.967116        -2.298603
 H         2.569423         0.915539        -1.538184
 H         4.909273         0.321379         0.687264
 H         3.997777        -2.612456         0.902945
 H         5.293865        -1.821690         1.917270
 H         3.077800        -0.103898         2.368806
