19
Iteration:   824charge 0 multiplicity 1
 C         0.447416         0.299237         0.250899
 C         1.425586        -0.652340        -0.190047
 C         1.596483        -1.174371        -1.704912
 C         2.522198        -0.146199        -1.175994
 O         3.821603        -0.647737        -0.857865
 C         4.148745        -0.331121         0.444451
 C         4.468518        -1.419934         1.427440
 C         3.125144        -0.846464         1.481731
 O         2.053219        -1.489912         0.809127
 H         0.463656         0.455834         1.434613
 H         0.415730         1.193650        -0.407657
 H        -0.570015        -0.127559         0.191542
 H         1.758750        -2.246438        -1.709602
 H         0.863028        -0.821731        -2.427793
 H         2.534863         0.907329        -1.428355
 H         4.636098         0.726705         0.551139
 H         4.631970        -2.474245         1.220483
 H         5.102991        -1.260243         2.285009
 H         2.796091        -0.333800         2.380086
