19
Iteration:  4283
 C         0.490826         0.377654         0.255575
 C         1.477943        -0.605196        -0.231132
 C         1.507080        -1.278452        -1.633174
 C         2.604055        -0.194473        -1.151121
 O         3.923156        -0.511853        -0.819131
 C         4.194108        -0.271504         0.564032
 C         4.391722        -1.523596         1.320691
 C         3.063766        -0.926399         1.430249
 O         1.950289        -1.479839         0.801786
 H        -0.111068         0.866642        -0.626396
 H        -0.367948        -0.172028         0.848577
 H         0.971113         1.253171         0.805227
 H         1.692177        -2.324316        -1.613111
 H         0.787853        -0.755677        -2.314908
 H         2.541039         0.756521        -1.614270
 H         4.717590         0.585154         0.720449
 H         4.508790        -2.474977         0.720762
 H         5.142976        -1.762595         2.115069
 H         2.827192        -0.472623         2.292928
