19
Iteration:  2410
 C         0.243876         0.291168         0.180511
 C         1.451180        -0.569654        -0.226903
 C         1.681511        -1.313479        -1.580024
 C         2.551578        -0.105933        -1.110656
 O         3.914054        -0.454500        -0.842054
 C         4.220737        -0.391540         0.466470
 C         4.346521        -1.698569         1.312314
 C         3.199987        -0.795907         1.477333
 O         1.978745        -1.338789         0.854719
 H         0.467485         1.278071         0.453378
 H        -0.402002         0.396038        -0.729146
 H        -0.129014        -0.233841         1.066329
 H         2.167192        -2.248820        -1.351725
 H         1.010945        -1.272345        -2.406902
 H         2.574672         0.806375        -1.735349
 H         4.909931         0.351273         0.672193
 H         4.099498        -2.606773         0.790975
 H         5.175745        -1.739584         2.039231
 H         2.934519        -0.450651         2.488850
