19
Iteration:   917
 C         0.379277         0.320371         0.160406
 C         1.492426        -0.636012        -0.215831
 C         1.696521        -1.296017        -1.601365
 C         2.496960        -0.171668        -1.249925
 O         3.836817        -0.426055        -0.835280
 C         4.207936        -0.381990         0.517415
 C         4.393998        -1.631568         1.306680
 C         3.198500        -0.805074         1.473056
 O         1.930062        -1.390619         0.944302
 H         0.584884         1.209702         0.659944
 H        -0.387314         0.611576        -0.649712
 H        -0.156659        -0.340508         0.944475
 H         2.143297        -2.322317        -1.632135
 H         0.939853        -1.117781        -2.430768
 H         2.181924         0.866432        -1.483333
 H         4.845742         0.443442         0.692875
 H         4.387655        -2.543815         0.650148
 H         5.180686        -1.691371         2.125843
 H         3.059234        -0.249394         2.413492
