19
Iteration:  1468charge 0 multiplicity 1
 C         0.379775         0.357721         0.126995
 C         1.493698        -0.580835        -0.199468
 C         1.552599        -1.306946        -1.575794
 C         2.461894        -0.152542        -1.262801
 O         3.866994        -0.487875        -0.776158
 C         4.187538        -0.306080         0.565681
 C         4.426950        -1.634544         1.272544
 C         3.179025        -0.920568         1.480716
 O         2.042081        -1.413133         0.884637
 H         0.719601         1.136394         0.851920
 H         0.066040         0.901782        -0.716809
 H        -0.544880        -0.221368         0.523705
 H         2.071179        -2.245124        -1.557626
 H         0.758084        -1.028368        -2.228895
 H         2.546872         0.808591        -1.824356
 H         4.660201         0.543004         0.793697
 H         4.525254        -2.368084         0.509551
 H         4.954167        -1.500236         2.201405
 H         2.959834        -0.515039         2.539085
