19
Iteration:  4624
 C         0.329946         0.434020         0.135643
 C         1.429144        -0.600750        -0.101244
 C         1.603468        -1.221916        -1.626777
 C         2.569574        -0.178731        -1.094416
 O         3.909516        -0.592955        -0.868220
 C         4.179484        -0.372906         0.452289
 C         4.512333        -1.566363         1.310294
 C         3.173744        -0.887868         1.444516
 O         1.899898        -1.448742         0.893578
 H         0.059374         0.904776        -0.790829
 H        -0.490686        -0.043583         0.582914
 H         0.613767         1.199127         0.889063
 H         1.946245        -2.257885        -1.711201
 H         0.830017        -0.940171        -2.386570
 H         2.316635         0.842091        -1.456627
 H         4.911948         0.507593         0.615493
 H         4.623843        -2.474889         0.786507
 H         5.135218        -1.300638         2.161602
 H         2.967150        -0.470495         2.380992
