19
Iteration:  2857
 C         0.324913         0.369296         0.124331
 C         1.422439        -0.635534        -0.226147
 C         1.546346        -1.373740        -1.511213
 C         2.518067        -0.156394        -1.115934
 O         3.913911        -0.541331        -0.839135
 C         4.254777        -0.335887         0.538609
 C         4.515318        -1.625531         1.241408
 C         3.190061        -0.856057         1.410959
 O         1.942225        -1.290404         0.919181
 H        -0.068845         0.481048         1.085728
 H         0.427702         1.451566        -0.117047
 H        -0.542666        -0.004976        -0.396172
 H         2.106568        -2.303801        -1.494920
 H         0.850170        -1.372173        -2.429210
 H         2.418136         0.841213        -1.638171
 H         4.680034         0.655925         0.804712
 H         4.410678        -2.567466         0.586882
 H         5.220939        -1.504966         2.110496
 H         2.976256        -0.429664         2.385553
