19
Iteration:  4179
 C         0.252879         0.266797         0.204797
 C         1.496373        -0.508279        -0.221742
 C         1.626430        -1.247076        -1.519105
 C         2.577267        -0.078915        -1.187008
 O         3.918859        -0.505414        -0.863761
 C         4.248366        -0.477832         0.484237
 C         4.382803        -1.721452         1.336536
 C         3.139529        -0.852572         1.438907
 O         1.993509        -1.303509         0.813107
 H         0.044503         1.102179        -0.404257
 H        -0.639113        -0.356218         0.308102
 H         0.317939         0.591960         1.241540
 H         2.008017        -2.228550        -1.503688
 H         0.756855        -1.281595        -2.206038
 H         2.413154         0.959259        -1.628045
 H         4.820118         0.553780         0.775191
 H         4.441525        -2.783729         1.029325
 H         4.986149        -1.575957         2.183212
 H         3.012460        -0.031190         2.288120
