19
Iteration:  1527charge 0 multiplicity 1
 C         0.307535         0.202619         0.073571
 C         1.526254        -0.564827        -0.179327
 C         1.729538        -1.302160        -1.461327
 C         2.498682        -0.096286        -1.148979
 O         3.916883        -0.410440        -0.906881
 C         4.169551        -0.380655         0.479389
 C         4.334906        -1.766192         1.210655
 C         3.178532        -0.832766         1.537192
 O         1.957922        -1.236094         0.950803
 H         0.555891         0.838145         0.968948
 H         0.000734         0.816980        -0.804136
 H        -0.499720        -0.371100         0.384043
 H         2.198045        -2.294909        -1.570727
 H         0.975273        -1.292715        -2.272681
 H         2.321360         0.827092        -1.653973
 H         4.787862         0.544640         0.905540
 H         3.980884        -2.628084         0.600367
 H         5.100016        -2.222106         1.872197
 H         3.083106        -0.404583         2.455876
