19
Iteration:  2602
 C         0.206405         0.261834         0.133021
 C         1.435389        -0.611681        -0.184776
 C         1.581387        -1.311365        -1.599254
 C         2.577679        -0.120421        -1.154614
 O         3.872314        -0.574530        -0.885975
 C         4.275799        -0.373870         0.516375
 C         4.471454        -1.670362         1.321112
 C         3.210876        -0.743802         1.468507
 O         1.958612        -1.271398         0.943626
 H        -0.432125        -0.276883         0.843404
 H         0.630330         1.101189         0.683958
 H        -0.145736         0.519288        -0.896333
 H         1.991300        -2.244080        -1.726218
 H         0.775308        -1.121512        -2.302158
 H         2.416572         0.828329        -1.644299
 H         4.972174         0.582260         0.624333
 H         4.547261        -2.512884         0.650089
 H         5.143627        -1.720550         2.154554
 H         3.134538        -0.209621         2.408943
