19
Iteration:  2893charge 0 multiplicity 1
 C         0.280035         0.293008         0.177871
 C         1.520963        -0.578869        -0.174053
 C         1.570724        -1.361808        -1.462660
 C         2.583855        -0.162546        -1.219664
 O         3.985163        -0.424174        -0.883888
 C         4.150983        -0.410137         0.469579
 C         4.373254        -1.688689         1.243301
 C         3.142928        -0.753241         1.476421
 O         1.980161        -1.283309         0.914850
 H         0.250957         0.254431         1.279562
 H         0.292683         1.159610        -0.405231
 H        -0.545838        -0.341727        -0.096539
 H         1.978899        -2.467844        -1.351577
 H         0.909514        -1.106474        -2.347839
 H         2.471914         0.678202        -1.917106
 H         4.813058         0.332881         0.817011
 H         3.987228        -2.585786         0.894345
 H         5.304183        -1.781953         1.750452
 H         3.060818        -0.289781         2.472643
