19
Iteration:  4474charge 0 multiplicity 1
 C         0.382777         0.457614         0.202032
 C         1.450121        -0.546952        -0.156072
 C         1.642304        -1.384472        -1.541363
 C         2.592878        -0.190267        -1.213232
 O         3.904841        -0.441667        -0.837226
 C         4.149215        -0.373275         0.520609
 C         4.497554        -1.596956         1.231494
 C         3.132793        -0.945317         1.417178
 O         1.875744        -1.410000         0.859784
 H        -0.137215         1.041340        -0.543360
 H        -0.413104        -0.043239         0.802827
 H         1.052449         1.167737         0.983613
 H         2.008839        -2.354940        -1.455258
 H         0.979319        -1.354487        -2.375146
 H         2.222908         0.746754        -1.526360
 H         4.608703         0.621187         0.907399
 H         4.449205        -2.447056         0.544499
 H         5.096101        -1.808212         2.085783
 H         2.908740        -0.413766         2.402691
