19
Iteration:  2272
 C         0.295654         0.250102         0.297780
 C         1.464173        -0.592695        -0.176212
 C         1.585646        -1.224770        -1.634831
 C         2.601974        -0.106569        -1.189035
 O         3.896563        -0.621788        -0.884815
 C         4.233502        -0.377959         0.492651
 C         4.363446        -1.571706         1.405192
 C         3.092217        -0.743359         1.486472
 O         2.056544        -1.425648         0.748273
 H         0.453185         0.929291         1.223717
 H         0.001793         0.947749        -0.452876
 H        -0.541266        -0.339483         0.537283
 H         1.856390        -2.297086        -1.821177
 H         0.994887        -0.760559        -2.402370
 H         2.585355         0.878419        -1.611736
 H         4.976426         0.450697         0.715636
 H         4.336515        -2.588335         1.182165
 H         5.063458        -1.479913         2.183832
 H         2.825322        -0.012156         2.159783
