19
Iteration:  2607charge 0 multiplicity 1
 C         0.245937         0.238534         0.125708
 C         1.445559        -0.610917        -0.163666
 C         1.601311        -1.288858        -1.574984
 C         2.523933        -0.135167        -1.160629
 O         3.884780        -0.571292        -0.911626
 C         4.306320        -0.376045         0.525444
 C         4.416843        -1.659612         1.303351
 C         3.199454        -0.774241         1.483843
 O         1.982182        -1.245871         0.925413
 H        -0.465318        -0.374740         0.710347
 H         0.509283         1.145127         0.730399
 H        -0.193920         0.713801        -0.748959
 H         2.237236        -2.273391        -1.607429
 H         0.735630        -1.176934        -2.250315
 H         2.411981         0.822261        -1.721931
 H         4.799523         0.512962         0.671337
 H         4.369840        -2.659100         0.809651
 H         5.257049        -1.619955         2.046468
 H         3.033862        -0.164489         2.391873
