19
Iteration:  2560charge 0 multiplicity 1
 C         0.347238         0.349492         0.140202
 C         1.509909        -0.578456        -0.189258
 C         1.579618        -1.247494        -1.506346
 C         2.579400        -0.111893        -1.223412
 O         3.834274        -0.665881        -0.859004
 C         4.079816        -0.356301         0.501480
 C         4.533499        -1.493242         1.337808
 C         3.121857        -0.895777         1.467633
 O         2.015398        -1.433357         0.872961
 H        -0.002721         0.204249         1.136566
 H         0.460639         1.441913         0.036528
 H        -0.417007         0.337523        -0.659655
 H         2.080112        -2.111929        -1.462140
 H         0.765891        -1.034635        -2.142091
 H         2.537837         0.913735        -1.532869
 H         4.670385         0.672043         0.467350
 H         4.634560        -2.411980         0.791833
 H         5.205946        -1.461628         2.133339
 H         2.891215        -0.395021         2.390482
