19
Iteration:  2473charge 0 multiplicity 1
 C         0.309510         0.365277         0.260419
 C         1.428624        -0.609763        -0.229869
 C         1.563960        -1.191030        -1.609596
 C         2.585273        -0.108768        -1.152491
 O         3.865688        -0.711393        -0.808444
 C         4.149022        -0.335547         0.441648
 C         4.517352        -1.515655         1.470529
 C         3.118468        -0.817160         1.403327
 O         2.031883        -1.487247         0.784598
 H         0.494344         0.676024         1.277813
 H         0.364506         1.189576        -0.557637
 H        -0.802597         0.041021         0.265643
 H         1.948418        -2.169443        -1.743346
 H         0.857034        -0.989404        -2.386871
 H         2.637624         0.754686        -1.838635
 H         4.714287         0.735311         0.564996
 H         4.644613        -2.415490         0.875687
 H         5.209956        -1.225611         2.286694
 H         2.941257        -0.306702         2.349419
