19
Iteration:  4479charge 0 multiplicity 1
 C         0.394045         0.487217         0.220156
 C         1.485994        -0.599791        -0.186316
 C         1.596747        -1.371382        -1.617199
 C         2.584009        -0.223341        -1.151731
 O         3.913756        -0.443610        -0.844524
 C         4.185085        -0.315821         0.525516
 C         4.513820        -1.615449         1.215047
 C         3.125020        -0.926039         1.430351
 O         1.833171        -1.449164         0.894587
 H         0.036076         1.031761        -0.701291
 H        -0.432723         0.025845         0.778420
 H         0.881785         1.151349         0.789852
 H         2.122769        -2.357640        -1.287108
 H         0.803088        -1.157554        -2.386335
 H         2.273975         0.837171        -1.425067
 H         4.502563         0.606528         0.886522
 H         4.520776        -2.451549         0.509140
 H         5.154797        -1.694098         2.140225
 H         3.005261        -0.362966         2.381500
