19
Iteration:  4275
 C         0.419037         0.365420         0.226327
 C         1.478146        -0.601156        -0.230936
 C         1.547985        -1.185559        -1.565480
 C         2.628133        -0.213293        -1.158884
 O         3.928470        -0.553753        -0.884217
 C         4.191388        -0.287473         0.561600
 C         4.454741        -1.543128         1.325599
 C         3.086653        -0.957494         1.475146
 O         1.919205        -1.453648         0.778308
 H        -0.117435         0.798079        -0.653551
 H        -0.256533        -0.160913         0.863214
 H         0.763634         1.225973         0.896758
 H         1.556905        -2.266165        -1.530073
 H         0.791739        -0.927627        -2.328204
 H         2.466095         0.784739        -1.615283
 H         4.608190         0.692812         0.904398
 H         4.598687        -2.409224         0.620926
 H         5.047879        -1.609592         2.254473
 H         2.747043        -0.370881         2.395019
