19
Iteration:  1451
 C         0.425562         0.320111         0.183304
 C         1.524475        -0.653258        -0.214879
 C         1.584932        -1.209647        -1.540063
 C         2.590515        -0.116344        -1.133317
 O         3.846058        -0.596115        -0.894875
 C         4.135743        -0.297982         0.513876
 C         4.445782        -1.528406         1.301356
 C         3.090575        -0.845772         1.526591
 O         1.973097        -1.482987         0.814337
 H         0.661301         1.145092         0.912079
 H         0.149512         0.852313        -0.823209
 H        -0.338282        -0.205132         0.676449
 H         2.042349        -2.217177        -1.554535
 H         0.746832        -1.013448        -2.265388
 H         2.453731         0.899020        -1.464397
 H         4.722139         0.737651         0.666248
 H         4.260287        -2.471613         0.705302
 H         5.264446        -1.581093         2.053894
 H         2.797856        -0.339251         2.456835
