19
Iteration:  1957charge 0 multiplicity 1
 C         0.378186         0.298532         0.323552
 C         1.498112        -0.541939        -0.235455
 C         1.549988        -1.100357        -1.724941
 C         2.552149        -0.136713        -1.096135
 O         3.865066        -0.733153        -0.832193
 C         4.145676        -0.423711         0.429853
 C         4.501086        -1.411330         1.490129
 C         3.079323        -0.791771         1.444360
 O         2.011054        -1.572906         0.754032
 H         0.734867         0.770204         1.310979
 H         0.255489         1.105399        -0.421067
 H        -0.605802        -0.274219         0.233761
 H         1.858526        -2.168192        -1.819552
 H         0.938686        -0.824739        -2.581127
 H         2.431688         0.920334        -1.492812
 H         4.638415         0.558575         0.503878
 H         4.715679        -2.457395         1.172288
 H         5.175023        -0.903233         2.255593
 H         2.822337         0.012909         2.229213
