19
Iteration:  3449charge 0 multiplicity 1
 C         0.225374         0.307110         0.106246
 C         1.447309        -0.521931        -0.158018
 C         1.609223        -1.285942        -1.496349
 C         2.580175        -0.124314        -1.066404
 O         3.975480        -0.509351        -0.892932
 C         4.271853        -0.395588         0.502409
 C         4.485240        -1.662547         1.229378
 C         3.137664        -0.833816         1.431446
 O         1.902771        -1.378179         0.881079
 H         0.169938         0.999576        -0.669954
 H        -0.867867        -0.144193         0.155358
 H         0.249544         0.718539         1.095662
 H         2.057896        -2.206003        -1.408638
 H         0.895360        -1.026062        -2.300859
 H         2.508375         0.753671        -1.638302
 H         4.872858         0.404209         0.886005
 H         4.309288        -2.570654         0.670034
 H         5.213538        -1.653809         2.103409
 H         2.898729        -0.296628         2.430842
