19
Iteration:  2944
 C         0.273646         0.300335         0.092911
 C         1.524457        -0.609560        -0.221100
 C         1.570420        -1.188262        -1.651329
 C         2.579331        -0.136581        -1.177992
 O         3.821851        -0.561497        -0.868942
 C         4.249721        -0.442474         0.533811
 C         4.500135        -1.620009         1.282851
 C         3.143998        -0.834711         1.566067
 O         1.962762        -1.320319         0.953813
 H         0.485951         1.134634         0.701018
 H        -0.340539         0.477087        -0.843491
 H        -0.190947        -0.371851         0.793765
 H         2.048259        -2.198401        -1.659836
 H         0.649966        -1.128426        -2.248489
 H         2.458036         0.962426        -1.388285
 H         4.858829         0.420797         0.662504
 H         4.406499        -2.635076         0.900972
 H         5.346139        -1.514941         2.017955
 H         3.060493        -0.088684         2.323609
