19
Iteration:  1825
 C         0.245461         0.293021        -0.049511
 C         1.437258        -0.560650        -0.151537
 C         1.668504        -1.391214        -1.508683
 C         2.543397        -0.169860        -1.053754
 O         3.860011        -0.277419        -0.867817
 C         4.241954        -0.385193         0.551378
 C         4.434998        -1.815815         1.193659
 C         3.260902        -0.926590         1.483622
 O         1.927527        -1.215973         0.991138
 H         0.407319         1.156317         0.625950
 H         0.067247         0.720320        -1.074305
 H        -0.568798        -0.111567         0.479965
 H         2.150200        -2.301113        -1.261014
 H         0.994482        -1.402201        -2.328614
 H         2.168436         0.710084        -1.651521
 H         5.017457         0.445693         0.695884
 H         4.286135        -2.411938         0.265233
 H         5.147145        -2.293668         1.888205
 H         3.176674        -0.555153         2.533509
