19
Iteration:  4863
 C         0.550602         0.442854         0.172780
 C         1.426480        -0.626427        -0.264998
 C         1.485223        -1.239361        -1.581901
 C         2.600376        -0.218942        -1.214207
 O         3.920012        -0.556918        -0.828274
 C         4.133213        -0.311772         0.550275
 C         4.474415        -1.535802         1.338774
 C         3.048711        -0.952440         1.487155
 O         1.946350        -1.451606         0.816528
 H        -0.095513         1.033529        -0.534077
 H        -0.257174         0.002437         0.829956
 H         0.862741         1.184075         0.873537
 H         1.772274        -2.246339        -1.449307
 H         0.842223        -0.970591        -2.494372
 H         2.540856         0.875333        -1.502023
 H         4.518191         0.611656         0.721507
 H         4.649126        -2.523471         0.863921
 H         5.149813        -1.422897         2.251616
 H         2.964493        -0.539831         2.485950
