19
Iteration:  2809charge 0 multiplicity 1
 C         0.375536         0.274298         0.124998
 C         1.493732        -0.639504        -0.208236
 C         1.485939        -1.212681        -1.595009
 C         2.525571        -0.182727        -1.181079
 O         3.874145        -0.626951        -0.863476
 C         4.166135        -0.398017         0.497317
 C         4.505986        -1.531485         1.388225
 C         3.153252        -0.805609         1.488622
 O         2.023526        -1.350192         0.857221
 H         0.168571         0.205445         1.249467
 H         0.748330         1.287459         0.278125
 H        -0.642675         0.310417        -0.330122
 H         1.778051        -2.247027        -1.731072
 H         0.697830        -0.966724        -2.180742
 H         2.481913         0.827269        -1.514635
 H         4.732906         0.574941         0.506001
 H         4.548655        -2.427521         0.853974
 H         5.157645        -1.307645         2.199458
 H         2.932171        -0.109361         2.307825
