19
Iteration:   732charge 0 multiplicity 1
 C         0.253652         0.299282         0.067354
 C         1.538721        -0.631042        -0.145522
 C         1.689313        -1.308413        -1.470516
 C         2.522774        -0.096629        -1.079092
 O         3.934955        -0.433804        -0.893524
 C         4.212571        -0.348707         0.434843
 C         4.328224        -1.699721         1.221932
 C         3.144635        -0.854635         1.480224
 O         1.972782        -1.336764         0.962449
 H         0.366593         1.282823         0.365003
 H        -0.286979         0.117563        -0.900372
 H        -0.413040        -0.208321         0.804494
 H         2.269250        -2.222365        -1.639016
 H         0.982009        -0.927829        -2.192521
 H         2.331490         0.885285        -1.573295
 H         4.863772         0.401870         0.685060
 H         4.285008        -2.546864         0.496128
 H         5.144754        -1.812362         1.957384
 H         3.094519        -0.383996         2.508952
