19
Iteration:  3057
 C         0.404861         0.377857         0.313028
 C         1.465915        -0.609058        -0.265913
 C         1.565670        -1.322369        -1.611543
 C         2.565566        -0.168601        -1.153638
 O         3.882875        -0.631599        -0.835700
 C         4.140394        -0.269029         0.502986
 C         4.409671        -1.525532         1.351107
 C         3.130899        -0.833341         1.384644
 O         1.990988        -1.450182         0.822399
 H         0.935731         0.950566         1.110766
 H         0.033573         1.000404        -0.460302
 H        -0.476090        -0.019175         0.815852
 H         2.088906        -2.343059        -1.644410
 H         0.861581        -0.932709        -2.452548
 H         2.579100         0.778692        -1.790454
 H         4.560272         0.716917         0.827634
 H         4.708450        -2.406403         0.778512
 H         5.147742        -1.394425         2.147221
 H         2.818168        -0.278178         2.348357
