19
Iteration:   801charge 0 multiplicity 1
 C         0.386218         0.331062         0.249994
 C         1.512314        -0.601457        -0.197014
 C         1.474418        -1.304866        -1.530714
 C         2.606700        -0.122285        -1.187307
 O         3.966354        -0.568006        -0.844531
 C         4.133346        -0.285627         0.528988
 C         4.427009        -1.489826         1.339285
 C         3.066258        -0.812722         1.412186
 O         2.010796        -1.530404         0.780570
 H         0.548891         0.768544         1.319821
 H         0.211305         1.034663        -0.515949
 H        -0.597768        -0.241360         0.390428
 H         2.040208        -2.249955        -1.716780
 H         0.613110        -1.031062        -2.218917
 H         2.621184         0.819981        -1.773998
 H         4.627017         0.658297         0.774789
 H         4.497778        -2.435317         0.753967
 H         5.176999        -1.619326         2.166499
 H         2.793357        -0.134718         2.175893
