19
Iteration:   202
 C         0.260720         0.251880         0.016419
 C         1.471195        -0.619164        -0.215618
 C         1.540491        -1.298698        -1.558874
 C         2.489268        -0.101823        -1.227908
 O         3.869403        -0.476071        -0.816335
 C         4.255844        -0.367123         0.522311
 C         4.463339        -1.711484         1.260524
 C         3.299472        -0.882612         1.528083
 O         1.992431        -1.230800         0.988583
 H         0.528859         1.299072         0.525105
 H        -0.227091         0.510788        -0.862402
 H        -0.491480        -0.231824         0.748688
 H         2.118049        -2.180482        -1.362826
 H         0.723883        -1.350091        -2.312332
 H         2.188347         0.832315        -1.786264
 H         4.832291         0.587304         0.794142
 H         4.293361        -2.630954         0.645119
 H         5.170696        -1.791226         2.152224
 H         3.151420        -0.407762         2.526270
