19
Iteration:  3363
 C         0.139966         0.404498         0.150858
 C         1.456184        -0.489776        -0.232830
 C         1.650895        -1.237022        -1.528747
 C         2.558360        -0.160163        -1.189294
 O         3.890243        -0.546146        -0.852523
 C         4.221964        -0.332949         0.537129
 C         4.527681        -1.657420         1.303220
 C         3.156319        -0.987427         1.493557
 O         1.982825        -1.402170         0.841137
 H        -0.497351         0.653856        -0.724084
 H        -0.265694        -0.244974         1.066391
 H         0.555263         1.424153         0.462402
 H         2.082014        -2.174302        -1.502073
 H         0.888509        -1.136771        -2.275701
 H         2.646834         0.814591        -1.555111
 H         4.683461         0.473418         0.880918
 H         4.610623        -2.430583         0.529427
 H         5.264881        -1.713695         2.164905
 H         2.963208        -0.398643         2.445583
