19
Iteration:  2035charge 0 multiplicity 1
 C         0.341550         0.392635         0.055455
 C         1.491032        -0.624037        -0.229873
 C         1.605213        -1.280148        -1.513476
 C         2.528759        -0.124060        -1.151267
 O         3.876784        -0.406649        -0.856658
 C         4.175350        -0.385338         0.570295
 C         4.470593        -1.681465         1.313388
 C         3.140910        -0.950574         1.414963
 O         1.971365        -1.376324         0.889661
 H         0.675885         1.236364         0.620783
 H        -0.127275         0.664373        -0.821470
 H        -0.263452        -0.103136         0.859637
 H         2.183363        -2.186230        -1.287048
 H         0.804688        -1.304756        -2.279025
 H         2.255135         0.844988        -1.564924
 H         4.558935         0.496313         0.838369
 H         4.528711        -2.633006         0.847546
 H         5.203286        -1.720822         2.049014
 H         3.007076        -0.355008         2.411826
