19
Iteration:  4093
 C         0.400279         0.434540         0.282381
 C         1.411682        -0.625004        -0.240469
 C         1.595405        -1.244310        -1.595063
 C         2.553885        -0.138569        -1.138071
 O         3.843531        -0.569706        -0.865537
 C         4.167107        -0.354936         0.533823
 C         4.473795        -1.636337         1.385219
 C         3.116948        -0.833858         1.460471
 O         2.008366        -1.471056         0.746919
 H        -0.070504         0.868556        -0.618111
 H        -0.430127        -0.216093         0.841021
 H         0.944534         1.271924         0.808198
 H         2.031105        -2.180357        -1.499221
 H         1.078029        -0.827451        -2.427151
 H         2.570271         0.806166        -1.764480
 H         4.768877         0.624882         0.680166
 H         4.458868        -2.547134         0.836363
 H         5.142111        -1.547660         2.191036
 H         2.682515        -0.254572         2.307173
