19
Iteration:  1146
 C         0.511400         0.346314         0.267099
 C         1.473068        -0.633583        -0.259363
 C         1.474104        -1.246903        -1.561368
 C         2.569747        -0.181688        -1.204617
 O         3.893163        -0.522419        -0.915665
 C         4.122324        -0.314469         0.524489
 C         4.416426        -1.451821         1.512449
 C         3.080514        -0.890470         1.441845
 O         2.051229        -1.557210         0.723091
 H         1.031085         0.929653         0.981827
 H         0.130396         1.171614        -0.426715
 H        -0.268165        -0.102993         0.941230
 H         1.871543        -2.219861        -1.830517
 H         0.663567        -0.991012        -2.255925
 H         2.565947         0.775075        -1.581645
 H         4.462228         0.694861         0.722505
 H         4.368728        -2.450035         1.055719
 H         5.046998        -1.269759         2.395650
 H         2.687355        -0.230430         2.142578
