19
Iteration:  4961
 C         0.243175         0.252205         0.139563
 C         1.543597        -0.547279        -0.164609
 C         1.602484        -1.229530        -1.481468
 C         2.579379        -0.104073        -1.200371
 O         3.887347        -0.575467        -0.854638
 C         4.348847        -0.469089         0.490315
 C         4.247226        -1.683518         1.287553
 C         3.134636        -0.729039         1.493629
 O         2.042846        -1.296709         0.828993
 H        -0.106715         1.066913        -0.618285
 H        -0.687230        -0.417139         0.246793
 H         0.205217         0.759152         1.135997
 H         2.150235        -2.245957        -1.531203
 H         0.849079        -0.906784        -2.197150
 H         2.529195         0.934738        -1.653399
 H         5.035090         0.261931         0.653148
 H         3.942563        -2.620383         0.746910
 H         4.954225        -1.904301         2.141058
 H         3.296613        -0.273140         2.429080
