19
Iteration:  4222charge 0 multiplicity 1
 C         0.257360         0.217315         0.162773
 C         1.491446        -0.659339        -0.223313
 C         1.562021        -1.102397        -1.659613
 C         2.592516        -0.071652        -1.054816
 O         3.848445        -0.653755        -0.837396
 C         4.226808        -0.401136         0.466696
 C         4.404759        -1.686691         1.346596
 C         3.192781        -0.735058         1.422501
 O         2.045508        -1.330827         0.920561
 H         0.142673         0.812461        -0.688563
 H        -0.583103        -0.384748         0.265585
 H         0.330534         0.790622         1.061421
 H         1.992076        -1.993815        -2.071002
 H         0.736681        -0.823406        -2.361543
 H         2.671552         1.001593        -1.391532
 H         5.003386         0.380396         0.843974
 H         4.045639        -2.516271         0.737235
 H         5.131676        -1.629307         2.084755
 H         2.934615        -0.048610         2.382188
