19
Iteration:   634charge 0 multiplicity 1
 C         0.364630         0.299989         0.144787
 C         1.436904        -0.672517        -0.198610
 C         1.537814        -1.247164        -1.529918
 C         2.555217        -0.113523        -1.167481
 O         3.867237        -0.525850        -0.866604
 C         4.191864        -0.363964         0.521206
 C         4.433654        -1.561591         1.350518
 C         3.151344        -0.780030         1.421303
 O         2.025174        -1.455623         0.858517
 H         0.492533         0.686696         1.118698
 H         0.410136         1.139989        -0.635625
 H        -0.645724        -0.212034         0.092669
 H         1.979048        -2.206694        -1.513679
 H         0.850360        -0.927579        -2.270809
 H         2.567162         0.927216        -1.549991
 H         4.732179         0.425162         0.832318
 H         4.462908        -2.529378         0.907502
 H         5.289001        -1.519773         1.994377
 H         2.963070        -0.245931         2.370567
