19
Iteration:  3009charge 0 multiplicity 1
 C         0.449320         0.384245         0.277560
 C         1.507717        -0.644251        -0.221211
 C         1.545394        -1.235281        -1.605168
 C         2.532901        -0.186428        -1.273428
 O         3.841734        -0.524216        -0.884755
 C         4.166733        -0.405484         0.503139
 C         4.413706        -1.558374         1.493369
 C         3.118132        -0.839654         1.439014
 O         2.046257        -1.438166         0.747806
 H         0.807302         1.368644         0.470358
 H        -0.482953         0.333316        -0.417754
 H         0.053467         0.023825         1.238076
 H         1.909657        -2.280992        -1.620331
 H         0.729710        -0.904595        -2.209088
 H         2.487777         0.892798        -1.555952
 H         4.677883         0.493693         0.757479
 H         4.595318        -2.565523         1.182464
 H         4.914642        -1.301166         2.441819
 H         2.733559        -0.272146         2.252797
