19
Iteration:  2150
 C         0.335864         0.257518         0.129029
 C         1.497975        -0.635585        -0.243019
 C         1.653062        -1.285750        -1.570724
 C         2.569316        -0.094181        -1.126737
 O         3.931819        -0.456784        -0.867976
 C         4.194352        -0.328050         0.547587
 C         4.310509        -1.686737         1.236651
 C         3.166222        -0.825986         1.455371
 O         1.957834        -1.356733         0.953820
 H         0.427308         0.691438         1.165664
 H         0.280329         1.046662        -0.698988
 H        -0.604369        -0.192068         0.193173
 H         1.910425        -2.308966        -1.753637
 H         0.846730        -1.045577        -2.277804
 H         2.276856         0.867364        -1.613317
 H         4.924696         0.454214         0.868635
 H         4.238644        -2.736746         0.831201
 H         5.085996        -1.656414         2.091501
 H         3.092030        -0.342021         2.402827
