19
Iteration:  3731charge 0 multiplicity 1
 C         0.355889         0.424907         0.146637
 C         1.514196        -0.512392        -0.199652
 C         1.626479        -1.215811        -1.552863
 C         2.584532        -0.141810        -1.101693
 O         3.848311        -0.550420        -0.854692
 C         4.130765        -0.390225         0.497023
 C         4.434307        -1.561889         1.264531
 C         3.097609        -0.964836         1.448165
 O         1.978981        -1.503251         0.861707
 H        -0.020419         0.499036        -0.879383
 H        -0.439806         0.052645         0.888198
 H         0.802256         1.296915         0.638602
 H         2.196330        -2.042472        -1.398061
 H         0.930231        -0.961578        -2.343526
 H         2.553818         0.846910        -1.494869
 H         4.538720         0.609297         0.958345
 H         4.490616        -2.586350         0.801423
 H         5.368478        -1.538409         1.988846
 H         2.851970        -0.406782         2.419305
