19
Iteration:  3265charge 0 multiplicity 1
 C         0.323429         0.305812         0.312064
 C         1.544330        -0.573847        -0.241824
 C         1.458843        -1.176320        -1.550979
 C         2.544837        -0.220836        -1.296007
 O         3.915709        -0.587258        -0.855654
 C         4.225524        -0.353010         0.532780
 C         4.405539        -1.530680         1.419420
 C         3.099924        -0.809643         1.525540
 O         2.094973        -1.457698         0.684758
 H         0.696220         1.316110         0.196994
 H        -0.647728         0.090576        -0.128899
 H         0.178633         0.252007         1.434681
 H         1.663871        -2.279600        -1.546195
 H         0.729037        -0.857042        -2.232618
 H         2.492498         0.687862        -1.831534
 H         4.789731         0.486504         0.798038
 H         4.367527        -2.457572         0.778946
 H         5.116874        -1.488752         2.215797
 H         2.658842        -0.161313         2.348234
