19
Iteration:  1498charge 0 multiplicity 1
 C         0.271182         0.328460         0.122515
 C         1.429262        -0.525942        -0.199437
 C         1.614532        -1.339335        -1.481086
 C         2.510577        -0.212117        -1.157923
 O         4.025603        -0.348950        -0.851248
 C         4.264733        -0.417475         0.508856
 C         4.489461        -1.649050         1.191625
 C         3.144023        -0.891853         1.446997
 O         1.857747        -1.376340         0.928403
 H         0.467853         0.954573         0.940566
 H         0.039854         1.052899        -0.799104
 H        -0.565247        -0.349434         0.562437
 H         1.991288        -2.341856        -1.268869
 H         1.061703        -1.156632        -2.399909
 H         2.492507         0.680510        -1.835981
 H         4.823274         0.473638         0.882728
 H         4.304533        -2.566318         0.637474
 H         5.144959        -1.668001         2.058100
 H         2.860051        -0.408579         2.529345
