19
Iteration:  1899charge 0 multiplicity 1
 C         0.308125         0.241937         0.213459
 C         1.461691        -0.587736        -0.259851
 C         1.672490        -1.273091        -1.553268
 C         2.576043        -0.111669        -1.194303
 O         3.899749        -0.572277        -0.837849
 C         4.152485        -0.372442         0.525391
 C         4.435769        -1.649662         1.297530
 C         3.136811        -0.777772         1.494845
 O         1.962393        -1.337599         0.821871
 H         0.709361         0.923781         1.097204
 H        -0.118957         1.024410        -0.555111
 H        -0.444387        -0.274917         0.733235
 H         2.025122        -2.283081        -1.597735
 H         0.962454        -0.926428        -2.281357
 H         2.341320         0.900709        -1.576451
 H         4.792954         0.621368         0.715154
 H         4.303282        -2.590432         0.750662
 H         5.212453        -1.625989         2.039287
 H         2.939719        -0.276287         2.360897
