19
Iteration:  4590
 C         0.339390         0.222019         0.297486
 C         1.588636        -0.592969        -0.215381
 C         1.559701        -1.103206        -1.607125
 C         2.572091        -0.097111        -1.217527
 O         3.825492        -0.722215        -0.859734
 C         4.169273        -0.432430         0.478107
 C         4.345185        -1.580077         1.437719
 C         3.157453        -0.714470         1.438510
 O         2.080861        -1.360781         0.793384
 H        -0.122235         0.849686        -0.502510
 H        -0.470991        -0.493056         0.419190
 H         0.432970         0.873590         1.126595
 H         1.826110        -2.108924        -1.890557
 H         0.541875        -0.741278        -2.131972
 H         2.745041         0.934271        -1.676282
 H         4.972257         0.322179         0.606144
 H         4.192506        -2.578810         1.095153
 H         5.137177        -1.455150         2.133448
 H         2.906079        -0.128196         2.257711
