19
Iteration:  1510
 C         0.257935         0.323484         0.153345
 C         1.473409        -0.591034        -0.163670
 C         1.658994        -1.336867        -1.457417
 C         2.630045        -0.148652        -1.199249
 O         3.989497        -0.351494        -0.895529
 C         4.249812        -0.333172         0.506341
 C         4.322992        -1.734451         1.209243
 C         3.129358        -0.900317         1.408281
 O         1.900861        -1.356451         0.969830
 H         0.413883         1.034044         0.950935
 H        -0.118559         0.862786        -0.783274
 H        -0.680006        -0.375406         0.278944
 H         2.101071        -2.310275        -1.275030
 H         0.874693        -1.339124        -2.202110
 H         2.383683         0.806001        -1.752374
 H         4.872719         0.458223         0.798921
 H         4.469345        -2.558225         0.526759
 H         4.986092        -1.757634         2.069064
 H         3.221209        -0.261677         2.438457
