19
Iteration:  3557
 C         0.479823         0.353033         0.350541
 C         1.493226        -0.573356        -0.296130
 C         1.483210        -1.221976        -1.646744
 C         2.544391        -0.207223        -1.316027
 O         3.876260        -0.558703        -0.791247
 C         4.171460        -0.328068         0.581163
 C         4.388500        -1.572927         1.438458
 C         3.104704        -0.884290         1.497854
 O         2.037267        -1.411001         0.716197
 H        -0.226161         0.714718        -0.316897
 H        -0.051040        -0.392169         0.973556
 H         0.965005         1.128166         0.826430
 H         1.745543        -2.287064        -1.799132
 H         0.814422        -0.912455        -2.391903
 H         2.586609         0.729751        -1.836219
 H         4.753097         0.689970         0.597663
 H         4.371539        -2.552431         0.841061
 H         5.074826        -1.536319         2.305329
 H         2.804478        -0.278886         2.407009
