19
Iteration:  3748
 C         0.400414         0.453543         0.225605
 C         1.471660        -0.619891        -0.232417
 C         1.611132        -1.189529        -1.566777
 C         2.580695        -0.153756        -1.199573
 O         3.935491        -0.566903        -0.839624
 C         4.124862        -0.293934         0.541617
 C         4.538964        -1.593632         1.325149
 C         3.098967        -1.004697         1.453360
 O         1.854118        -1.427757         0.828605
 H        -0.422692         0.576810        -0.559529
 H        -0.171589        -0.064533         0.953754
 H         1.003941         1.253006         0.758687
 H         1.888582        -2.332022        -1.691900
 H         0.874685        -1.134456        -2.377554
 H         2.389634         0.831662        -1.737244
 H         4.478102         0.673694         0.693378
 H         4.917344        -2.360936         0.657746
 H         4.970827        -1.597628         2.258974
 H         2.953446        -0.538367         2.374789
