19
Iteration:  1140charge 0 multiplicity 1
 C         0.538018         0.376442         0.264552
 C         1.488649        -0.676979        -0.227019
 C         1.469186        -1.247104        -1.623462
 C         2.548789        -0.180004        -1.229976
 O         3.867572        -0.511653        -0.867770
 C         4.120052        -0.335688         0.502084
 C         4.478448        -1.487410         1.537411
 C         3.062294        -0.857882         1.421788
 O         2.044253        -1.557583         0.703488
 H         1.081652         1.070761         1.014811
 H         0.025030         1.081246        -0.320962
 H        -0.247051        -0.159398         0.814405
 H         1.826555        -2.277766        -1.679224
 H         0.653007        -0.896233        -2.239771
 H         2.433422         0.904389        -1.656021
 H         4.430980         0.698511         0.776057
 H         4.482844        -2.536488         1.253728
 H         5.062250        -1.167843         2.387427
 H         2.638549        -0.145991         2.240722
