19
Iteration:  3778
 C         0.453377         0.427307         0.302850
 C         1.520246        -0.594178        -0.255826
 C         1.526140        -1.241399        -1.680033
 C         2.593053        -0.233844        -1.209551
 O         3.880679        -0.554179        -0.767939
 C         4.091928        -0.305223         0.547138
 C         4.456026        -1.580942         1.325419
 C         3.090085        -0.854167         1.501797
 O         2.010983        -1.464593         0.741827
 H        -0.101345         0.835028        -0.496177
 H        -0.169595        -0.245339         0.854594
 H         0.846462         1.072517         1.048297
 H         1.651414        -2.419668        -1.633955
 H         0.814702        -0.745323        -2.387462
 H         2.371171         0.737748        -1.740343
 H         4.615092         0.695653         0.840223
 H         4.413810        -2.517975         0.789293
 H         5.161266        -1.689480         2.094178
 H         2.801430        -0.264938         2.382784
