19
Iteration:  3428
 C         0.345551         0.340664         0.119201
 C         1.483012        -0.635348        -0.212226
 C         1.666194        -1.295833        -1.541370
 C         2.528247        -0.139171        -1.190648
 O         3.835352        -0.353919        -0.857468
 C         4.229595        -0.404493         0.517785
 C         4.328255        -1.746550         1.290765
 C         3.197113        -0.869452         1.467587
 O         1.994128        -1.336856         0.905209
 H         0.020868         0.911119        -0.739071
 H        -0.575536        -0.239442         0.637397
 H         0.667595         0.920110         0.998866
 H         2.168413        -2.184052        -1.375742
 H         0.942882        -1.282013        -2.360119
 H         2.280856         0.792299        -1.626131
 H         4.960588         0.277996         0.740345
 H         4.114131        -2.673385         0.770623
 H         5.125425        -1.665880         2.091144
 H         3.124824        -0.222955         2.403480
