19
Iteration:  2822
 C         0.351937         0.387598         0.147209
 C         1.510945        -0.599282        -0.189004
 C         1.484572        -1.243389        -1.555932
 C         2.561768        -0.150408        -1.201436
 O         3.833813        -0.645284        -0.909120
 C         4.200110        -0.314192         0.472106
 C         4.480608        -1.522759         1.321692
 C         3.144629        -0.850787         1.536035
 O         2.030916        -1.455337         0.940027
 H        -0.151526         0.134048         1.081001
 H         0.574137         1.376617        -0.334022
 H        -0.274850        -0.007592        -0.705616
 H         2.074893        -2.099508        -1.688925
 H         0.698113        -1.031782        -2.212516
 H         2.537827         0.880292        -1.590802
 H         4.586246         0.735320         0.843983
 H         4.496732        -2.577297         0.891847
 H         5.250831        -1.498354         2.146774
 H         2.995248        -0.217546         2.428030
