19
Iteration:  2011charge 0 multiplicity 1
 C         0.344542         0.389110         0.259882
 C         1.486304        -0.580641        -0.255851
 C         1.544477        -1.275400        -1.589222
 C         2.608819        -0.263414        -1.189762
 O         3.926611        -0.419128        -0.854752
 C         4.202415        -0.352347         0.532162
 C         4.402545        -1.544884         1.361800
 C         3.085446        -0.848987         1.476854
 O         1.978405        -1.507530         0.774299
 H         0.744899         1.124098         1.060893
 H         0.053009         0.933035        -0.637141
 H        -0.405904        -0.082252         0.851607
 H         1.855685        -2.334067        -1.466769
 H         0.874710        -0.980471        -2.373905
 H         2.499798         0.655375        -1.795952
 H         4.902324         0.528354         0.545166
 H         4.390376        -2.559252         0.967998
 H         5.043885        -1.729387         2.239851
 H         2.904604        -0.437862         2.458804
