19
Iteration:  2428charge 0 multiplicity 1
 C         0.309086         0.250015         0.095573
 C         1.536833        -0.582983        -0.180521
 C         1.627462        -1.174052        -1.556274
 C         2.598213        -0.095763        -1.224016
 O         3.835053        -0.599956        -0.907875
 C         4.195126        -0.365706         0.589439
 C         4.432725        -1.607703         1.290799
 C         3.116067        -0.874048         1.504464
 O         1.982967        -1.376681         0.947983
 H         0.607725         1.231297         0.557795
 H        -0.242679         0.336425        -0.884809
 H        -0.251308        -0.232195         0.985882
 H         2.034725        -2.173364        -1.866134
 H         0.816458        -0.964674        -2.226917
 H         2.381588         0.939968        -1.565696
 H         4.808250         0.667880         0.839043
 H         4.255516        -2.470739         0.580963
 H         5.143850        -1.642084         2.147295
 H         3.010439        -0.095273         2.279804
