19
Iteration:  4218
 C         0.254311         0.213129         0.186912
 C         1.503587        -0.685210        -0.214040
 C         1.573233        -1.106364        -1.684551
 C         2.610245        -0.064184        -1.075596
 O         3.854033        -0.633321        -0.860822
 C         4.248163        -0.409064         0.489433
 C         4.367634        -1.681724         1.324983
 C         3.177160        -0.736624         1.452941
 O         2.044941        -1.332269         0.938365
 H         0.095553         0.889332        -0.741531
 H        -0.648613        -0.474106         0.103693
 H         0.377176         0.845769         1.117761
 H         2.009343        -2.070800        -1.973030
 H         0.671761        -0.705242        -2.215350
 H         2.679414         0.949028        -1.354215
 H         4.894466         0.354687         0.727815
 H         3.948016        -2.538734         0.776719
 H         5.170007        -1.596234         2.122087
 H         3.049774         0.004122         2.158346
