19
Iteration:  2865
 C         0.275048         0.359925         0.142076
 C         1.489176        -0.587345        -0.182284
 C         1.550823        -1.414101        -1.598565
 C         2.490196        -0.177357        -1.209482
 O         3.925149        -0.492486        -0.830727
 C         4.254330        -0.311669         0.524925
 C         4.481738        -1.637958         1.300637
 C         3.212002        -0.862347         1.427144
 O         1.904367        -1.281598         0.947349
 H         0.314818         0.257770         1.270515
 H         0.400272         1.455416        -0.176525
 H        -0.633572        -0.034729        -0.423826
 H         2.053542        -2.300046        -1.460195
 H         0.818286        -1.251358        -2.316397
 H         2.389454         0.747325        -1.769553
 H         4.983110         0.615773         0.640825
 H         4.436322        -2.560522         0.644363
 H         5.206758        -1.832741         2.121376
 H         3.154265        -0.562662         2.472628
