19
Iteration:   135charge 0 multiplicity 1
 C         0.346658         0.239432         0.173072
 C         1.474730        -0.590770        -0.193422
 C         1.626972        -1.288993        -1.543653
 C         2.539588        -0.175266        -1.209959
 O         3.837226        -0.498172        -0.816547
 C         4.204609        -0.387451         0.469834
 C         4.391721        -1.641881         1.262590
 C         3.150103        -0.771760         1.509975
 O         2.055321        -1.316166         0.870847
 H         0.715983         1.279371         0.575286
 H        -0.164921         0.445801        -0.695141
 H        -0.410654        -0.253337         0.889830
 H         1.976515        -2.350940        -1.562070
 H         0.868720        -1.099870        -2.311195
 H         2.447675         0.793267        -1.753411
 H         4.772590         0.564501         0.829580
 H         3.955856        -2.627964         0.957903
 H         5.237176        -1.606682         1.950956
 H         2.949393        -0.139746         2.348253
