19
Iteration:   592
 C         0.440072         0.315303         0.313608
 C         1.501736        -0.590013        -0.230919
 C         1.535158        -1.175759        -1.579316
 C         2.637949        -0.203358        -1.213983
 O         3.893019        -0.661721        -0.819844
 C         4.112948        -0.286380         0.500415
 C         4.475541        -1.452384         1.384810
 C         3.017272        -0.846037         1.432026
 O         1.993542        -1.519025         0.752101
 H         1.063359         0.916707         1.061468
 H         0.014695         0.874398        -0.485790
 H        -0.413667        -0.177017         0.988161
 H         1.906207        -2.170783        -1.627989
 H         0.849961        -0.843284        -2.353463
 H         2.523880         0.777520        -1.715705
 H         4.248238         0.762574         0.566452
 H         4.515467        -2.329577         0.766210
 H         5.240516        -1.227383         2.129422
 H         2.657994        -0.267607         2.191617
