19
Iteration:  2263
 C         0.335633         0.264513         0.341797
 C         1.479441        -0.592572        -0.273172
 C         1.617223        -1.157175        -1.605358
 C         2.545341        -0.128173        -1.186868
 O         3.910010        -0.607135        -0.844767
 C         4.224391        -0.483645         0.450945
 C         4.339306        -1.513947         1.454990
 C         3.096866        -0.695694         1.433704
 O         2.033251        -1.505504         0.734348
 H         0.822618         0.841706         1.196405
 H        -0.105647         0.907874        -0.379657
 H        -0.455775        -0.352551         0.830956
 H         2.115414        -2.139672        -1.702192
 H         0.904241        -0.956448        -2.403963
 H         2.634449         0.848005        -1.535236
 H         4.716238         0.586223         0.700691
 H         4.161732        -2.446513         1.051927
 H         4.987207        -1.330463         2.239202
 H         2.908928         0.087350         2.087709
