19
Iteration:  1153charge 0 multiplicity 1
 C         0.445262         0.335897         0.321338
 C         1.507302        -0.606227        -0.254381
 C         1.503383        -1.236826        -1.559487
 C         2.566557        -0.193500        -1.176552
 O         3.947971        -0.569790        -0.938358
 C         4.122015        -0.292835         0.531942
 C         4.345443        -1.430705         1.431737
 C         3.035264        -0.877280         1.448964
 O         2.053142        -1.549988         0.759789
 H         1.152949         0.911658         1.114592
 H         0.255132         0.895159        -0.646683
 H        -0.433663        -0.058204         0.769843
 H         1.943351        -2.268294        -1.734347
 H         0.754346        -0.963027        -2.333383
 H         2.492878         0.863827        -1.669483
 H         4.701938         0.777701         0.688042
 H         4.497763        -2.320774         0.799594
 H         5.015468        -1.482702         2.299135
 H         2.737183        -0.258679         2.360698
