19
Iteration:  1286
 C         0.204914         0.291098         0.135641
 C         1.463221        -0.587251        -0.225480
 C         1.638165        -1.397644        -1.520784
 C         2.594723        -0.124408        -1.211516
 O         3.973024        -0.335367        -0.864559
 C         4.200878        -0.378886         0.498287
 C         4.439220        -1.711508         1.188675
 C         3.166912        -0.916186         1.518352
 O         1.905972        -1.282106         0.986988
 H         0.473927         1.166697         0.769837
 H        -0.286975         0.797888        -0.707046
 H        -0.377375        -0.258327         0.687093
 H         2.145644        -2.374319        -1.480569
 H         0.931310        -1.291850        -2.355671
 H         2.441719         0.775273        -1.772166
 H         4.854485         0.489256         0.931611
 H         4.335152        -2.653275         0.624886
 H         5.146195        -1.779435         2.014815
 H         3.213325        -0.512699         2.451770
