19
Iteration:  3397charge 0 multiplicity 1
 C         0.416194         0.289472         0.126215
 C         1.535388        -0.612356        -0.230885
 C         1.614024        -1.298081        -1.548299
 C         2.604519        -0.183135        -1.196353
 O         3.905134        -0.331284        -0.885837
 C         4.205609        -0.410086         0.543079
 C         4.289538        -1.671291         1.221909
 C         3.146080        -0.844946         1.523993
 O         1.932641        -1.374465         0.934625
 H        -0.513416         0.488668        -0.490775
 H        -0.142257        -0.228008         0.980934
 H         0.722877         1.296105         0.612212
 H         2.014135        -2.233366        -1.467876
 H         0.818745        -1.082612        -2.243260
 H         2.334475         0.787023        -1.559842
 H         4.875279         0.270048         0.898915
 H         4.062641        -2.558402         0.620961
 H         5.208277        -1.864656         1.891927
 H         2.919795        -0.238794         2.417203
