19
Iteration:  4453
 C         0.358513         0.324606         0.281727
 C         1.506763        -0.483524        -0.232456
 C         1.584055        -1.368087        -1.547931
 C         2.617434        -0.151589        -1.235043
 O         3.878242        -0.437166        -0.855367
 C         4.186251        -0.333272         0.526022
 C         4.321877        -1.736506         1.238990
 C         3.150700        -0.855608         1.519884
 O         1.995131        -1.356442         0.810322
 H        -0.046539         0.744688        -0.614956
 H        -0.469577        -0.283220         0.712784
 H         0.826543         1.181027         0.972239
 H         2.005547        -2.233562        -1.181472
 H         0.797083        -1.319960        -2.253633
 H         2.385309         0.551082        -1.987217
 H         4.794137         0.561332         0.889438
 H         4.420123        -2.673733         0.665652
 H         5.072010        -1.615868         2.001182
 H         2.972776        -0.387854         2.616789
