19
Iteration:  4721charge 0 multiplicity 1
 C         0.308570         0.186607         0.129803
 C         1.535257        -0.533171        -0.204235
 C         1.620068        -1.202264        -1.577061
 C         2.574844        -0.070173        -1.204981
 O         3.874843        -0.516220        -0.895759
 C         4.177037        -0.474670         0.461502
 C         4.366655        -1.739291         1.359709
 C         3.193073        -0.765519         1.520197
 O         1.990443        -1.302528         0.944361
 H        -0.042107         0.814995        -0.758380
 H        -0.531101        -0.367026         0.576783
 H         0.572098         0.866349         0.990231
 H         1.928621        -2.324937        -1.703728
 H         0.763738        -0.923580        -2.117083
 H         2.482879         0.893773        -1.776373
 H         4.881085         0.343025         0.703137
 H         4.025048        -2.671210         0.904484
 H         5.219636        -1.705152         2.025204
 H         2.991116        -0.068804         2.279600
