19
Iteration:  1629charge 0 multiplicity 1
 C         0.470952         0.329177         0.251737
 C         1.427895        -0.702171        -0.246323
 C         1.539699        -1.191941        -1.647561
 C         2.570381        -0.145118        -1.185673
 O         3.900039        -0.545488        -0.823681
 C         4.200515        -0.295938         0.517451
 C         4.427954        -1.548268         1.387658
 C         3.126777        -0.826930         1.454257
 O         1.958282        -1.487034         0.774055
 H         0.890933         0.784816         1.069549
 H         0.069646         1.123048        -0.421516
 H        -0.441602        -0.271727         0.528260
 H         1.810158        -2.195920        -1.744928
 H         0.772731        -0.896528        -2.307085
 H         2.411052         0.861734        -1.627969
 H         4.790400         0.551242         0.905546
 H         4.403578        -2.566338         1.048413
 H         4.987338        -1.472247         2.280066
 H         2.842383        -0.256574         2.397304
