19
Iteration:  2251
 C         0.455119         0.247012         0.367574
 C         1.464944        -0.631493        -0.244959
 C         1.603028        -1.150946        -1.693077
 C         2.620344        -0.084685        -1.146552
 O         3.873825        -0.630649        -0.936268
 C         4.170405        -0.366399         0.474698
 C         4.333239        -1.530528         1.555963
 C         3.025185        -0.753058         1.335878
 O         2.035318        -1.473537         0.769112
 H         1.013669         0.997880         1.061025
 H        -0.154432         0.864832        -0.235786
 H        -0.161331        -0.422044         0.940575
 H         2.093794        -2.144327        -1.549489
 H         0.782629        -1.107241        -2.386478
 H         2.489019         0.871462        -1.547735
 H         4.843598         0.594621         0.645007
 H         4.246202        -2.527220         1.283790
 H         5.053511        -1.448806         2.293686
 H         2.618427        -0.203885         2.082785
