19
Iteration:  1377
 C         0.290766         0.256642         0.325033
 C         1.484778        -0.600891        -0.156129
 C         1.604552        -1.122909        -1.573233
 C         2.638701        -0.162115        -1.233043
 O         3.909190        -0.700358        -0.900077
 C         4.190260        -0.306215         0.438830
 C         4.353895        -1.483607         1.418298
 C         3.099117        -0.748128         1.449877
 O         2.033376        -1.517458         0.758958
 H         0.483955         0.792736         1.221631
 H         0.181026         1.077950        -0.462035
 H        -0.466670        -0.499032         0.643705
 H         1.864994        -2.182727        -1.595589
 H         0.852724        -0.663093        -2.240387
 H         2.556326         0.883150        -1.601849
 H         4.807341         0.581898         0.509642
 H         4.279170        -2.379662         0.762881
 H         5.029191        -1.464739         2.277515
 H         2.827980        -0.093377         2.418947
