19
Iteration:  2168charge 0 multiplicity 1
 C         0.392158         0.360282         0.143815
 C         1.530772        -0.591077        -0.214705
 C         1.629874        -1.215276        -1.597675
 C         2.532204        -0.180652        -1.207534
 O         3.864205        -0.477943        -0.842531
 C         4.134352        -0.404054         0.512741
 C         4.533802        -1.584877         1.327639
 C         3.103305        -0.913880         1.553169
 O         1.889856        -1.428442         0.866502
 H         0.614282         0.865982         1.025985
 H         0.135804         1.032806        -0.668741
 H        -0.614161        -0.149648         0.443534
 H         2.207714        -2.176503        -1.582237
 H         0.970485        -1.195730        -2.441096
 H         2.520014         0.859631        -1.574892
 H         4.460054         0.545343         0.680774
 H         4.512217        -2.382641         0.569290
 H         5.299605        -1.710088         2.140753
 H         2.985770        -0.262173         2.534022
