19
Iteration:  3270
 C         0.359114         0.255848         0.323417
 C         1.491572        -0.529277        -0.229996
 C         1.446888        -1.193865        -1.549261
 C         2.573217        -0.173419        -1.337558
 O         3.909283        -0.592997        -0.880398
 C         4.256197        -0.367846         0.544444
 C         4.381697        -1.551975         1.451395
 C         3.075157        -0.831397         1.508505
 O         2.124838        -1.442761         0.703400
 H         0.663766         1.329485         0.257761
 H        -0.670306         0.057369        -0.120938
 H         0.215334         0.370813         1.378529
 H         1.756208        -2.206033        -1.520448
 H         0.602782        -1.098003        -2.327836
 H         2.478354         0.870037        -1.783225
 H         4.732318         0.740270         0.655908
 H         4.319395        -2.502376         0.938586
 H         5.125855        -1.525486         2.291140
 H         2.671220        -0.195198         2.242219
