19
Iteration:  2860
 C         0.307121         0.373290         0.124379
 C         1.448484        -0.625764        -0.205113
 C         1.537680        -1.391814        -1.548798
 C         2.501056        -0.152756        -1.150438
 O         3.925518        -0.524544        -0.831625
 C         4.260417        -0.318338         0.541381
 C         4.506262        -1.636817         1.266968
 C         3.203304        -0.857410         1.402636
 O         1.923291        -1.283192         0.929379
 H         0.084541         0.436275         1.238518
 H         0.361757         1.409765        -0.088451
 H        -0.518135        -0.023170        -0.426110
 H         2.153414        -2.386650        -1.475504
 H         0.805085        -1.343222        -2.453709
 H         2.401720         0.802420        -1.694905
 H         4.751613         0.565771         0.701798
 H         4.399646        -2.494671         0.670074
 H         5.210975        -1.626951         2.078471
 H         3.035179        -0.524319         2.436004
