19
Iteration:  1839
 C         0.308369         0.328655        -0.030581
 C         1.531115        -0.596797        -0.156922
 C         1.589638        -1.382555        -1.481279
 C         2.450256        -0.198118        -1.235012
 O         3.910383        -0.233182        -0.798968
 C         4.275466        -0.351520         0.561098
 C         4.375407        -1.805966         1.130332
 C         3.246755        -0.877159         1.552985
 O         1.956436        -1.303232         0.992673
 H         0.532453         1.199072         0.453385
 H        -0.065251         0.545769        -0.960587
 H        -0.573917        -0.306882         0.334065
 H         1.969304        -2.409711        -1.352468
 H         0.820012        -1.242746        -2.315928
 H         2.370113         0.823815        -1.625338
 H         4.926169         0.367871         0.912550
 H         3.998457        -2.672943         0.506797
 H         5.113573        -2.060711         1.928542
 H         3.157890        -0.471837         2.659205
