19
Iteration:  3260charge 0 multiplicity 1
 C         0.333096         0.345560         0.315367
 C         1.542043        -0.590220        -0.222010
 C         1.475732        -1.205137        -1.568388
 C         2.555221        -0.246340        -1.233784
 O         3.916705        -0.580877        -0.840501
 C         4.172248        -0.340382         0.521756
 C         4.419993        -1.530802         1.384221
 C         3.112104        -0.791097         1.505712
 O         2.076155        -1.472087         0.690915
 H         0.591838         1.413158         0.072304
 H        -0.694423         0.118179        -0.236955
 H         0.211716         0.068924         1.366661
 H         1.596874        -2.269235        -1.609446
 H         0.728628        -0.644507        -2.254824
 H         2.547266         0.673659        -1.891362
 H         4.912960         0.474134         0.859393
 H         4.394145        -2.419059         0.805825
 H         5.166749        -1.458128         2.198294
 H         2.777210        -0.242502         2.362888
