19
Iteration:   920
 C         0.373349         0.318132         0.137665
 C         1.469386        -0.660352        -0.224537
 C         1.695499        -1.306389        -1.576047
 C         2.533254        -0.142528        -1.226564
 O         3.846158        -0.419977        -0.861031
 C         4.194248        -0.361899         0.519159
 C         4.407198        -1.650886         1.294624
 C         3.202857        -0.806814         1.491876
 O         1.919131        -1.389944         0.946726
 H         0.671715         1.200004         0.649162
 H        -0.331227         0.514413        -0.591171
 H        -0.182317        -0.228537         0.948825
 H         2.138051        -2.329206        -1.596322
 H         0.894669        -1.133195        -2.339620
 H         2.192319         0.886159        -1.513274
 H         4.795557         0.459838         0.694819
 H         4.307304        -2.522516         0.602421
 H         5.170276        -1.758177         2.113333
 H         3.026941        -0.225409         2.386218
