19
Iteration:  3236charge 0 multiplicity 1
 C         0.383787         0.362644         0.233112
 C         1.489628        -0.655084        -0.214834
 C         1.551912        -1.184259        -1.617974
 C         2.532737        -0.186013        -1.153684
 O         3.897839        -0.610056        -0.856603
 C         4.195875        -0.295237         0.477015
 C         4.489613        -1.505779         1.310604
 C         3.127582        -0.909269         1.431606
 O         1.932973        -1.467047         0.889102
 H         0.893872         1.335764         0.087579
 H        -0.512987         0.399684        -0.349100
 H         0.129518         0.168539         1.265781
 H         1.973262        -2.161300        -1.539023
 H         0.875893        -0.927890        -2.388066
 H         2.441234         0.861595        -1.451334
 H         4.466937         0.779151         0.829997
 H         4.631033        -2.395475         0.632906
 H         5.063597        -1.492287         2.248034
 H         2.927982        -0.296276         2.270154
