19
Iteration:   996
 C         0.246312         0.199503         0.080280
 C         1.527140        -0.561360        -0.202654
 C         1.705094        -1.352264        -1.520054
 C         2.579336        -0.133350        -1.144088
 O         3.875722        -0.401570        -0.864818
 C         4.267989        -0.362453         0.501140
 C         4.407159        -1.750095         1.190982
 C         3.195927        -0.847432         1.447174
 O         1.871995        -1.179653         1.025508
 H         0.411172         0.730230         0.987785
 H        -0.107789         0.868071        -0.674991
 H        -0.666105        -0.486342         0.267570
 H         2.072854        -2.371165        -1.331932
 H         0.866877        -1.247567        -2.220261
 H         2.323237         0.717409        -1.809654
 H         4.951216         0.407425         0.649464
 H         4.277928        -2.616112         0.497202
 H         5.069099        -1.889069         2.066642
 H         3.130211        -0.535634         2.487583
