19
Iteration:  3634
 C         0.260164         0.310589         0.114850
 C         1.511768        -0.589483        -0.194871
 C         1.536951        -1.200614        -1.612160
 C         2.576527        -0.158196        -1.125910
 O         3.829937        -0.540629        -0.801812
 C         4.300773        -0.408560         0.541718
 C         4.408570        -1.673267         1.268132
 C         3.194033        -0.812969         1.489891
 O         2.009674        -1.345937         0.849444
 H         0.114841         1.049399        -0.594065
 H        -0.731119        -0.231390         0.112195
 H         0.465507         0.613603         1.122220
 H         1.909795        -2.227803        -1.661516
 H         0.836774        -0.742300        -2.314996
 H         2.581152         0.877002        -1.472111
 H         4.990176         0.602142         0.625264
 H         4.282074        -2.751679         0.860341
 H         5.255367        -1.697136         2.024649
 H         2.835740        -0.344137         2.476394
