19
Iteration:   990
 C         0.228839         0.244241         0.091196
 C         1.516492        -0.585575        -0.232919
 C         1.674299        -1.380592        -1.529737
 C         2.574854        -0.174811        -1.153621
 O         3.880542        -0.372136        -0.852987
 C         4.248951        -0.386200         0.559998
 C         4.418562        -1.761472         1.163251
 C         3.196819        -0.864498         1.468961
 O         1.901172        -1.142765         0.987166
 H         0.244813         0.805948         1.122978
 H        -0.201498         0.787044        -0.813683
 H        -0.574836        -0.380008         0.367804
 H         2.130711        -2.343049        -1.394530
 H         0.838411        -1.356037        -2.204982
 H         2.333122         0.810975        -1.571761
 H         5.118313         0.452160         0.541634
 H         4.607277        -2.679563         0.624823
 H         5.088201        -1.851907         1.994941
 H         3.040324        -0.512102         2.502009
