19
Iteration:  2463
 C         0.317584         0.354348         0.200153
 C         1.438507        -0.627499        -0.209712
 C         1.567873        -1.166029        -1.662669
 C         2.553703        -0.173523        -1.137821
 O         3.808368        -0.706585        -0.853511
 C         4.218336        -0.338645         0.537293
 C         4.555360        -1.460981         1.409023
 C         3.150709        -0.877915         1.413437
 O         1.988997        -1.448212         0.856211
 H         0.528732         1.011580         1.012022
 H         0.094688         1.134520        -0.629648
 H        -0.659552        -0.252775         0.275601
 H         1.909109        -2.149952        -1.731091
 H         0.960920        -0.673193        -2.384274
 H         2.674806         0.863003        -1.542058
 H         4.811967         0.640122         0.707800
 H         4.720222        -2.376817         0.866911
 H         5.222600        -1.424957         2.278821
 H         2.789093        -0.252810         2.226576
