19
Iteration:   334
 C         0.411134         0.371180         0.253877
 C         1.474141        -0.642909        -0.259260
 C         1.544882        -1.159996        -1.699047
 C         2.528552        -0.207703        -1.228010
 O         3.813427        -0.692415        -0.879233
 C         4.116892        -0.293732         0.490374
 C         4.600530        -1.448984         1.491451
 C         3.178858        -0.851462         1.532258
 O         1.970896        -1.482082         0.810448
 H         0.861890         1.080289         1.020786
 H        -0.188189         0.879513        -0.570210
 H        -0.278123        -0.246107         0.834429
 H         1.841200        -2.147695        -1.990181
 H         0.659493        -0.965014        -2.233152
 H         2.467551         0.834612        -1.470538
 H         4.616724         0.638808         0.572566
 H         4.519154        -2.428409         1.026719
 H         5.322688        -1.224122         2.255370
 H         2.806637        -0.265374         2.389004
