19
Iteration:  1664
 C         0.563313         0.431193         0.323837
 C         1.500221        -0.641387        -0.285621
 C         1.489551        -1.179877        -1.611831
 C         2.574485        -0.178523        -1.181925
 O         3.897292        -0.601375        -0.847624
 C         4.064575        -0.259071         0.550282
 C         4.480125        -1.427824         1.434822
 C         3.014049        -0.946907         1.432276
 O         2.020357        -1.595964         0.661465
 H         0.813350         0.824978         1.249730
 H         0.280209         1.107935        -0.391180
 H        -0.317446        -0.255083         0.675696
 H         1.943294        -2.188302        -1.496268
 H         0.679100        -1.048925        -2.311380
 H         2.634135         0.885310        -1.505721
 H         4.435659         0.705354         0.653098
 H         4.401327        -2.481949         1.170857
 H         5.011322        -1.138002         2.363771
 H         2.641637        -0.264115         2.333670
