19
Iteration:  1460charge 0 multiplicity 1
 C         0.410588         0.302750         0.129894
 C         1.538524        -0.569650        -0.161893
 C         1.545029        -1.234281        -1.552418
 C         2.513214        -0.126072        -1.201505
 O         3.849024        -0.566209        -0.849526
 C         4.199327        -0.261442         0.555787
 C         4.419954        -1.545028         1.287055
 C         3.094191        -0.897645         1.501088
 O         2.011039        -1.464558         0.853363
 H         0.936400         1.051289         0.835555
 H         0.043437         0.833887        -0.714683
 H        -0.468502        -0.095795         0.525820
 H         2.122824        -2.151689        -1.673838
 H         0.744022        -1.219133        -2.314520
 H         2.425723         0.763695        -1.781894
 H         4.756836         0.703351         0.813872
 H         4.322083        -2.514746         0.742629
 H         5.166834        -1.707286         2.087725
 H         2.975827        -0.623600         2.443025
