19
Iteration:  2789
 C         0.343389         0.306494         0.378133
 C         1.436836        -0.581548        -0.250024
 C         1.566528        -1.247553        -1.643213
 C         2.577305        -0.236063        -1.216705
 O         3.853806        -0.655260        -0.885180
 C         4.283311        -0.338376         0.462725
 C         4.399920        -1.509633         1.419055
 C         3.125051        -0.733311         1.418929
 O         2.006399        -1.431203         0.824255
 H         0.015615         0.066879         1.411129
 H         0.604783         1.386703         0.642129
 H        -0.446716         0.224080        -0.423024
 H         1.885046        -2.273855        -1.719885
 H         0.989046        -0.911758        -2.449067
 H         2.641194         0.720097        -1.738498
 H         4.862371         0.699537         0.477084
 H         4.336029        -2.580594         1.157335
 H         5.072183        -1.318732         2.298152
 H         2.926475         0.014438         2.206517
