19
Iteration:   136charge 0 multiplicity 1
 C         0.344869         0.241233         0.173749
 C         1.488848        -0.594890        -0.195204
 C         1.628221        -1.295758        -1.536076
 C         2.534491        -0.168579        -1.202612
 O         3.840197        -0.498731        -0.819563
 C         4.214743        -0.384717         0.471518
 C         4.380001        -1.642023         1.257190
 C         3.146263        -0.773190         1.512108
 O         2.051005        -1.314623         0.864563
 H         0.704195         1.267129         0.562498
 H        -0.172740         0.419573        -0.674453
 H        -0.392151        -0.252569         0.884482
 H         1.989526        -2.342431        -1.553411
 H         0.853017        -1.094962        -2.291631
 H         2.453910         0.801840        -1.768927
 H         4.779264         0.569142         0.797119
 H         3.942502        -2.633608         0.943554
 H         5.247178        -1.613932         1.953005
 H         2.928598        -0.116686         2.379572
