19
Iteration:  2766
 C         0.387835         0.290643         0.357299
 C         1.504676        -0.565705        -0.253926
 C         1.552850        -1.248678        -1.507558
 C         2.578032        -0.155135        -1.206022
 O         3.930318        -0.725503        -0.955557
 C         4.117265        -0.332826         0.440521
 C         4.355996        -1.495954         1.482877
 C         3.073816        -0.689009         1.399272
 O         2.067495        -1.425191         0.734411
 H        -0.000522        -0.372468         1.202281
 H         0.750010         1.128693         0.999711
 H        -0.354656         0.499637        -0.455364
 H         1.892363        -2.275398        -1.481844
 H         0.772708        -1.058617        -2.072937
 H         2.637590         0.787254        -1.670126
 H         4.744938         0.637821         0.626056
 H         4.204424        -2.489700         1.185424
 H         5.226926        -1.355129         2.075264
 H         2.756808        -0.163604         2.285934
