19
Iteration:  3193charge 0 multiplicity 1
 C         0.342637         0.339119         0.140259
 C         1.456986        -0.588709        -0.157336
 C         1.535264        -1.247955        -1.569046
 C         2.515743        -0.190941        -1.128427
 O         3.882328        -0.509428        -0.854830
 C         4.195499        -0.318003         0.519765
 C         4.467289        -1.646722         1.313577
 C         3.187213        -0.846095         1.467756
 O         2.019477        -1.404044         0.854569
 H         0.693884         1.312200         0.628598
 H        -0.309709         0.429339        -0.811022
 H        -0.433730        -0.133862         0.793638
 H         1.857862        -2.282999        -1.604073
 H         0.784600        -1.107549        -2.298505
 H         2.493113         0.765867        -1.673862
 H         4.916388         0.579331         0.693326
 H         4.366344        -2.404417         0.477436
 H         5.198254        -1.676340         2.118629
 H         3.036537        -0.302303         2.364469
