19
Iteration:  2389
 C         0.225469         0.259952         0.182730
 C         1.464996        -0.560799        -0.221208
 C         1.671415        -1.367589        -1.476157
 C         2.525931        -0.204951        -1.232454
 O         3.978366        -0.275136        -0.839253
 C         4.322261        -0.454890         0.514805
 C         4.336254        -1.787776         1.284325
 C         3.157572        -0.754928         1.472000
 O         1.946260        -1.306208         0.820556
 H         0.534655         1.214029         0.536571
 H        -0.477015         0.611217        -0.590107
 H        -0.228865        -0.250282         1.008769
 H         2.069404        -2.349514        -1.275142
 H         0.952197        -1.142102        -2.229985
 H         2.413010         0.734653        -1.789347
 H         4.841314         0.324322         0.796752
 H         4.208449        -2.724187         0.772398
 H         4.970010        -1.973387         2.149772
 H         2.919206        -0.108552         2.346453
