19
Iteration:  2911
 C         0.278068         0.265966         0.145383
 C         1.469936        -0.586493        -0.158511
 C         1.636134        -1.299763        -1.450142
 C         2.560052        -0.147468        -1.157616
 O         3.900425        -0.424618        -0.950981
 C         4.342829        -0.425319         0.498467
 C         4.286266        -1.678948         1.288515
 C         3.161029        -0.760993         1.441145
 O         2.005743        -1.370424         0.903627
 H         0.406894         0.777799         1.060309
 H         0.053286         1.129257        -0.609032
 H        -0.639984        -0.324003         0.023858
 H         2.153553        -2.234039        -1.250008
 H         0.763723        -1.307551        -2.147350
 H         2.358180         0.879132        -1.583336
 H         5.013312         0.435197         0.601434
 H         4.086598        -2.614614         0.693371
 H         4.950291        -1.813261         2.186669
 H         2.987078        -0.035231         2.213671
