19
Iteration:  3798
 C         0.425149         0.351710         0.274120
 C         1.527164        -0.600749        -0.166682
 C         1.549561        -1.188940        -1.526670
 C         2.572494        -0.063943        -1.195549
 O         3.904769        -0.592164        -0.917318
 C         4.157118        -0.356763         0.500475
 C         4.320438        -1.551068         1.414064
 C         3.043288        -0.847331         1.417484
 O         2.080465        -1.523276         0.743668
 H         0.265903         0.903079        -0.606424
 H        -0.624103         0.000535         0.570594
 H         0.918894         0.821361         1.104860
 H         1.987402        -2.186854        -1.614089
 H         0.722147        -1.205911        -2.240014
 H         2.435676         0.943786        -1.626272
 H         4.844420         0.586034         0.692802
 H         4.220672        -2.564440         0.952774
 H         5.023275        -1.440201         2.254659
 H         2.741127        -0.358560         2.394671
