19
Iteration:  1735
 C         0.216665         0.267517         0.148003
 C         1.541279        -0.564562        -0.184596
 C         1.629509        -1.194569        -1.579241
 C         2.539589        -0.113188        -1.114390
 O         3.875110        -0.500230        -0.905701
 C         4.181615        -0.429384         0.437909
 C         4.412554        -1.671768         1.415665
 C         3.163678        -0.825027         1.421166
 O         2.050796        -1.400925         0.866443
 H         0.407413         1.055820         0.975261
 H         0.023849         0.788276        -0.859575
 H        -0.526602        -0.290486         0.571138
 H         2.218504        -2.086844        -1.697855
 H         0.842351        -1.030048        -2.312912
 H         2.505967         0.933154        -1.370845
 H         4.794590         0.510472         0.779500
 H         4.179551        -2.687276         1.127593
 H         4.952507        -1.555433         2.325811
 H         3.010435        -0.276434         2.270397
