19
Iteration:  4094charge 0 multiplicity 1
 C         0.400132         0.443556         0.281019
 C         1.407795        -0.627820        -0.237353
 C         1.600106        -1.244271        -1.599715
 C         2.558020        -0.141821        -1.131913
 O         3.842853        -0.564827        -0.865679
 C         4.163321        -0.356689         0.529240
 C         4.481172        -1.636456         1.386686
 C         3.109491        -0.839719         1.457902
 O         2.009396        -1.469932         0.755370
 H        -0.077714         0.880086        -0.615686
 H        -0.434512        -0.226922         0.834821
 H         0.967303         1.271769         0.780436
 H         2.050453        -2.169306        -1.503308
 H         1.054140        -0.845350        -2.463097
 H         2.550670         0.804366        -1.770752
 H         4.752360         0.596534         0.685352
 H         4.446673        -2.556821         0.816996
 H         5.150053        -1.504541         2.186827
 H         2.699505        -0.290282         2.300413
