19
Iteration:  1266
 C         0.323956         0.154346         0.153812
 C         1.480410        -0.590155        -0.277921
 C         1.722153        -1.284737        -1.549147
 C         2.509277        -0.118894        -1.211650
 O         3.859805        -0.366847        -0.872697
 C         4.228895        -0.464910         0.545063
 C         4.424364        -1.775787         1.239324
 C         3.185870        -0.824650         1.506779
 O         1.904065        -1.158677         0.983713
 H         0.443946         0.903369         0.885781
 H        -0.219997         0.701801        -0.722397
 H        -0.458454        -0.496689         0.645705
 H         2.213774        -2.243257        -1.479916
 H         0.944770        -1.331575        -2.299324
 H         2.296920         0.721407        -1.776313
 H         4.864858         0.434419         0.843508
 H         4.270252        -2.672046         0.633508
 H         5.288844        -1.869750         1.899511
 H         3.071220        -0.294720         2.440552
