19
Iteration:  3548charge 0 multiplicity 1
 C         0.475505         0.289472         0.306584
 C         1.535887        -0.558236        -0.299958
 C         1.439238        -1.228563        -1.651667
 C         2.574037        -0.142379        -1.226688
 O         3.904654        -0.562686        -0.843161
 C         4.154852        -0.349154         0.540831
 C         4.413665        -1.586949         1.441498
 C         3.032861        -0.837221         1.470398
 O         2.054615        -1.409187         0.739207
 H        -0.119302         0.782842        -0.342753
 H        -0.025044        -0.362689         1.113998
 H         0.912095         1.061834         0.905108
 H         1.683492        -2.308022        -1.786833
 H         0.610215        -0.873661        -2.173488
 H         2.627112         0.643074        -1.937321
 H         4.822422         0.456662         0.882770
 H         4.406419        -2.667581         0.996330
 H         5.047500        -1.353705         2.323628
 H         2.615257        -0.300537         2.419287
