19
Iteration:  4318
 C         0.560461         0.392701         0.306287
 C         1.519314        -0.599973        -0.249711
 C         1.628373        -1.310899        -1.580833
 C         2.490703        -0.104091        -1.206447
 O         3.853021        -0.443068        -0.927883
 C         4.104587        -0.364436         0.490966
 C         4.357356        -1.595004         1.455329
 C         3.023189        -0.902395         1.500712
 O         2.024067        -1.511547         0.767337
 H         0.351676         1.053867        -0.621094
 H        -0.347241         0.017188         0.793055
 H         1.155481         1.019812         1.134852
 H         2.032393        -2.359756        -1.542086
 H         0.874280        -1.165990        -2.351802
 H         2.344752         0.883306        -1.710162
 H         4.790057         0.506780         0.537515
 H         4.114586        -2.474276         0.818384
 H         5.152291        -1.383352         2.155738
 H         2.725989        -0.446480         2.472357
