19
Iteration:  4885charge 0 multiplicity 1
 C         0.356861         0.421725         0.144944
 C         1.482241        -0.617122        -0.121125
 C         1.602638        -1.193414        -1.646728
 C         2.562956        -0.169553        -1.130447
 O         3.831060        -0.672776        -0.792424
 C         4.221286        -0.305651         0.536916
 C         4.444835        -1.587057         1.346553
 C         3.098835        -0.860503         1.434936
 O         2.016482        -1.466103         0.829407
 H         0.025309         0.881033        -0.873181
 H        -0.603890         0.096191         0.651491
 H         0.499257         1.376442         0.719697
 H         1.894197        -2.188297        -1.922134
 H         0.765382        -0.674943        -2.234515
 H         2.662564         0.836966        -1.677817
 H         4.671519         0.596573         0.626454
 H         4.387897        -2.504036         0.717414
 H         5.306297        -1.748879         2.088906
 H         3.033878        -0.150832         2.257316
