19
Iteration:  2141
 C         0.256233         0.190555         0.091276
 C         1.506368        -0.663956        -0.193605
 C         1.637326        -1.257046        -1.512142
 C         2.585595        -0.131779        -1.142704
 O         3.944490        -0.398162        -0.824269
 C         4.267394        -0.408083         0.459318
 C         4.270846        -1.733836         1.231332
 C         3.166550        -0.725405         1.506418
 O         1.968080        -1.330940         0.905588
 H         0.456616         0.666967         1.149271
 H         0.159323         1.101917        -0.578200
 H        -0.747813        -0.263756         0.051692
 H         1.997092        -2.268270        -1.572760
 H         0.878723        -0.934492        -2.263010
 H         2.559020         0.900035        -1.474899
 H         5.125961         0.458969         0.678802
 H         4.074045        -2.589659         0.562514
 H         4.820257        -1.801346         2.158188
 H         3.232397        -0.274060         2.429631
