19
Iteration:  2786
 C         0.339835         0.304965         0.385788
 C         1.447687        -0.572868        -0.229430
 C         1.559708        -1.236397        -1.642060
 C         2.581646        -0.232640        -1.237388
 O         3.875874        -0.661849        -0.886535
 C         4.279866        -0.359389         0.463666
 C         4.390667        -1.496304         1.413638
 C         3.108156        -0.733264         1.437369
 O         2.027300        -1.434162         0.815113
 H        -0.064297         0.070615         1.417920
 H         0.597230         1.304038         0.651481
 H        -0.513316         0.319131        -0.337001
 H         1.942831        -2.261022        -1.686925
 H         0.972015        -1.040928        -2.484728
 H         2.623583         0.719841        -1.700367
 H         4.778679         0.592549         0.433381
 H         4.330022        -2.464483         1.071713
 H         4.937529        -1.314001         2.276692
 H         2.894915         0.084682         2.116058
