19
Iteration:  2381
 C         0.250429         0.270096         0.156538
 C         1.487171        -0.523854        -0.208298
 C         1.639403        -1.368057        -1.503908
 C         2.565365        -0.206930        -1.222619
 O         3.976321        -0.238647        -0.856033
 C         4.251805        -0.439254         0.489168
 C         4.319659        -1.785883         1.331612
 C         3.204852        -0.790161         1.462671
 O         1.937344        -1.321147         0.876551
 H         0.515854         1.217359         0.785309
 H        -0.273658         0.419021        -0.750161
 H        -0.178080        -0.356402         0.898275
 H         1.940710        -2.387654        -1.379365
 H         0.804429        -1.373184        -2.297955
 H         2.506062         0.590096        -1.924061
 H         4.912258         0.430700         0.808528
 H         3.929202        -2.523112         0.693249
 H         5.060158        -1.941587         2.072861
 H         2.983231        -0.402121         2.421899
