19
Iteration:   891charge 0 multiplicity 1
 C         0.273977         0.244002         0.252772
 C         1.424355        -0.619658        -0.269312
 C         1.588314        -1.230121        -1.558458
 C         2.584233        -0.124194        -1.209913
 O         3.919765        -0.582814        -0.898504
 C         4.169615        -0.375769         0.526676
 C         4.456429        -1.561525         1.425534
 C         3.180754        -0.793933         1.509906
 O         2.022908        -1.385332         0.746655
 H         0.625844         0.984451         1.124663
 H        -0.157614         0.954900        -0.505837
 H        -0.494381        -0.370172         0.675330
 H         1.788566        -2.261735        -1.596934
 H         0.833511        -0.956771        -2.230527
 H         2.472446         0.837878        -1.641340
 H         4.781028         0.620312         0.635769
 H         4.368926        -2.517270         0.978625
 H         5.123527        -1.528558         2.217742
 H         2.886521        -0.170004         2.357096
