19
Iteration:     4charge 0 multiplicity 1
 C         0.335398         0.304408         0.182902
 C         1.487304        -0.611584        -0.180144
 C         1.586760        -1.248443        -1.549344
 C         2.580411        -0.160911        -1.178569
 O         3.890378        -0.593467        -0.892372
 C         4.172305        -0.343980         0.476514
 C         4.414164        -1.576000         1.331687
 C         3.126008        -0.780678         1.465753
 O         2.019054        -1.393915         0.869011
 H         0.609068         1.023811         1.070056
 H         0.030638         0.879698        -0.596106
 H        -0.556576        -0.295977         0.587078
 H         1.916752        -2.278687        -1.519771
 H         0.780913        -1.059256        -2.284298
 H         2.396670         0.789295        -1.706414
 H         4.845920         0.555429         0.647332
 H         4.404150        -2.505814         0.827343
 H         5.181918        -1.379723         2.085145
 H         2.852541        -0.354825         2.394771
