19
Iteration:  2087charge 0 multiplicity 1
 C         0.193970         0.142560         0.045396
 C         1.514823        -0.547200        -0.190995
 C         1.665185        -1.268035        -1.549430
 C         2.516076         0.001514        -1.122511
 O         3.938754        -0.472443        -0.860463
 C         4.350779        -0.430411         0.513077
 C         4.394089        -1.794254         1.220462
 C         3.196100        -0.890790         1.480199
 O         1.851035        -1.161462         1.005528
 H         0.213504         1.032489         0.800982
 H        -0.173858         0.561079        -0.920296
 H        -0.474956        -0.686656         0.369429
 H         2.188147        -2.214440        -1.521322
 H         0.918978        -0.977912        -2.295990
 H         2.412812         0.943919        -1.673003
 H         5.133980         0.454379         0.815776
 H         4.315158        -2.697030         0.615717
 H         5.097454        -1.878462         2.052092
 H         3.196655        -0.372148         2.406664
