19
Iteration:  1206charge 0 multiplicity 1
 C         0.189932         0.248087         0.091777
 C         1.483469        -0.589400        -0.166637
 C         1.588926        -1.186014        -1.575120
 C         2.544564        -0.139207        -1.205406
 O         3.852069        -0.531149        -0.884035
 C         4.259496        -0.361834         0.508392
 C         4.486106        -1.650261         1.319912
 C         3.239303        -0.902125         1.474638
 O         1.973414        -1.297820         0.923301
 H         0.338574         0.837335         1.031272
 H        -0.060656         0.751544        -0.783269
 H        -0.579211        -0.468985        -0.001889
 H         2.197149        -2.118074        -1.553909
 H         0.640570        -1.081335        -2.108152
 H         2.424983         1.005191        -1.472378
 H         4.917639         0.529581         0.735985
 H         4.569709        -2.714626         1.082749
 H         5.101043        -1.424132         2.204218
 H         3.178914        -0.508037         2.582825
