19
Iteration:  1926charge 0 multiplicity 1
 C         0.336988         0.262658         0.148529
 C         1.535282        -0.577174        -0.189209
 C         1.466274        -1.089817        -1.639376
 C         2.580409        -0.095991        -1.193359
 O         3.886731        -0.718886        -0.834203
 C         4.197328        -0.307309         0.461004
 C         4.429844        -1.520451         1.458084
 C         3.166436        -0.808773         1.479086
 O         2.042840        -1.537218         0.850776
 H         0.469186         0.924640         1.030057
 H         0.142705         0.933943        -0.635879
 H        -0.665684        -0.375358         0.379630
 H         1.706244        -2.151365        -2.007281
 H         0.644872        -0.638204        -2.235322
 H         2.461105         0.967330        -1.548740
 H         4.709740         0.565978         0.473435
 H         4.637035        -2.405928         0.846088
 H         5.051233        -1.311407         2.367748
 H         2.864205        -0.210614         2.487987
