19
Iteration:  2644charge 0 multiplicity 1
 C         0.269579         0.248713         0.180446
 C         1.491890        -0.621895        -0.176696
 C         1.616038        -1.325541        -1.458554
 C         2.493772        -0.206919        -1.219368
 O         3.972172        -0.435305        -0.984865
 C         4.307063        -0.414788         0.467160
 C         4.324590        -1.687516         1.338420
 C         3.146842        -0.701711         1.457289
 O         2.004939        -1.279749         0.945077
 H        -0.744131        -0.300060        -0.052098
 H         0.311895         0.422845         1.272537
 H         0.217152         1.127477        -0.546654
 H         2.091538        -2.266084        -1.450636
 H         0.713828        -1.243089        -2.120257
 H         2.350237         0.712440        -1.831904
 H         4.958934         0.415204         0.915738
 H         3.977472        -2.589618         0.820194
 H         5.206240        -1.740750         2.003221
 H         2.931032        -0.002104         2.280308
