19
Iteration:  1881charge 0 multiplicity 1
 C         0.303828         0.335637         0.249417
 C         1.435694        -0.560458        -0.222940
 C         1.703120        -1.315956        -1.577240
 C         2.571611        -0.165175        -1.191761
 O         3.906406        -0.411793        -0.887089
 C         4.307543        -0.347393         0.518306
 C         4.321826        -1.661888         1.272973
 C         3.119156        -0.906858         1.401674
 O         1.934583        -1.345471         0.936571
 H         0.630403         1.118980         1.003526
 H        -0.182396         0.727769        -0.645976
 H        -0.455585        -0.447712         0.629191
 H         2.335325        -2.184833        -1.420094
 H         1.022269        -1.658569        -2.380462
 H         2.393973         0.763491        -1.852725
 H         4.879474         0.476695         0.886120
 H         4.206129        -2.610047         0.634200
 H         4.925683        -1.721966         2.229018
 H         3.073076        -0.300977         2.438240
