19
Iteration:  4423
 C         0.266832         0.215445         0.180686
 C         1.414540        -0.627938        -0.169409
 C         1.564882        -1.173704        -1.566173
 C         2.609372        -0.122110        -1.106094
 O         3.940365        -0.480522        -0.928933
 C         4.285946        -0.450650         0.470215
 C         4.356337        -1.712502         1.348208
 C         3.204180        -0.718585         1.451405
 O         1.985269        -1.350296         0.898558
 H        -0.073289         0.756760        -0.705527
 H        -0.618523        -0.323880         0.593522
 H         0.583002         0.889368         0.844006
 H         1.875983        -2.187958        -1.883161
 H         0.825820        -0.833955        -2.291388
 H         2.403646         0.722858        -1.708447
 H         4.867520         0.390354         0.740628
 H         4.187846        -2.722952         0.936379
 H         5.172998        -1.745349         2.096966
 H         2.982910         0.003264         2.278052
