19
Iteration:  1760charge 0 multiplicity 1
 C         0.198753         0.205612         0.109615
 C         1.446205        -0.598410        -0.266131
 C         1.620729        -1.211172        -1.551676
 C         2.563825        -0.146323        -1.157609
 O         3.871155        -0.430000        -0.821844
 C         4.312869        -0.424355         0.535661
 C         4.395530        -1.777374         1.250752
 C         3.199842        -0.722087         1.508639
 O         1.998616        -1.280788         0.919549
 H         0.302442         0.873791         0.943707
 H         0.037475         0.716596        -0.875711
 H        -0.671866        -0.542250         0.420124
 H         2.044413        -2.188248        -1.606944
 H         0.812333        -1.093348        -2.168561
 H         2.548722         0.856970        -1.665946
 H         5.287206         0.158523         0.735769
 H         4.108493        -2.648927         0.696421
 H         5.191464        -1.845223         2.004850
 H         3.008998        -0.242914         2.524248
