19
Iteration:  2554charge 0 multiplicity 1
 C         0.369730         0.377211         0.125927
 C         1.468669        -0.581976        -0.186548
 C         1.602829        -1.213643        -1.497739
 C         2.584039        -0.126760        -1.237621
 O         3.799207        -0.647378        -0.837991
 C         4.124843        -0.323733         0.482570
 C         4.495680        -1.485497         1.345646
 C         3.129868        -0.921679         1.427378
 O         2.037287        -1.470458         0.869858
 H         0.214208         0.149290         1.222659
 H         0.657155         1.456045         0.160883
 H        -0.496914         0.231698        -0.541007
 H         2.127486        -2.259878        -1.396961
 H         0.753889        -1.134316        -2.219741
 H         2.416666         0.905689        -1.627447
 H         4.552455         0.610077         0.560854
 H         4.471213        -2.548628         1.014416
 H         5.181313        -1.369503         2.224632
 H         2.868750        -0.277305         2.292944
