19
Iteration:  2442charge 0 multiplicity 1
 C         0.369775         0.249469         0.093366
 C         1.523829        -0.646076        -0.212344
 C         1.494929        -1.140585        -1.629903
 C         2.583246        -0.086905        -1.108916
 O         3.906136        -0.650239        -0.820771
 C         4.123307        -0.330585         0.450729
 C         4.486912        -1.567411         1.332045
 C         3.160973        -0.846774         1.505106
 O         1.949965        -1.385999         0.933352
 H         0.637206         1.154791         0.580628
 H        -0.206782         0.532255        -0.845857
 H        -0.466816        -0.285612         0.591441
 H         1.923615        -2.081385        -1.818391
 H         0.667186        -0.773497        -2.199573
 H         2.782027         0.889846        -1.582974
 H         4.638658         0.593507         0.614320
 H         4.565863        -2.493999         0.801714
 H         5.286064        -1.453309         2.085036
 H         2.997494        -0.508952         2.535575
