19
Iteration:  1711
 C         0.362566         0.245164         0.219995
 C         1.540064        -0.579525        -0.257347
 C         1.551041        -1.133945        -1.593559
 C         2.578509        -0.102540        -1.175026
 O         3.924237        -0.639557        -0.851390
 C         4.189467        -0.355668         0.489528
 C         4.450709        -1.466997         1.371057
 C         3.057745        -0.863640         1.483764
 O         1.932073        -1.509576         0.822925
 H         0.861691         0.891879         1.037638
 H         0.030553         0.898577        -0.601319
 H        -0.341578        -0.212124         0.827604
 H         1.929755        -2.183728        -1.661368
 H         0.860109        -0.735490        -2.444846
 H         2.661493         0.895436        -1.599173
 H         4.593679         0.631823         0.745059
 H         4.359342        -2.428533         0.787029
 H         5.168578        -1.408400         2.222528
 H         2.850915        -0.314968         2.396779
