19
Iteration:  3195charge 0 multiplicity 1
 C         0.363385         0.336428         0.125455
 C         1.451621        -0.574569        -0.134151
 C         1.547160        -1.245609        -1.579141
 C         2.514713        -0.182310        -1.130660
 O         3.871053        -0.511545        -0.850266
 C         4.181295        -0.331755         0.522902
 C         4.460975        -1.625760         1.305319
 C         3.195824        -0.868196         1.468648
 O         2.021821        -1.407976         0.860505
 H         0.717446         1.257134         0.631575
 H        -0.359007         0.395698        -0.829410
 H        -0.394069        -0.067443         0.844333
 H         1.860444        -2.284225        -1.612281
 H         0.746336        -1.163742        -2.397355
 H         2.495596         0.804537        -1.682392
 H         4.823855         0.529518         0.678686
 H         4.391396        -2.387781         0.526644
 H         5.190113        -1.646038         2.109728
 H         3.102269        -0.252163         2.349847
