19
Iteration:  3597charge 0 multiplicity 1
 C         0.471953         0.375786         0.158806
 C         1.505111        -0.609678        -0.173910
 C         1.580028        -1.193402        -1.506390
 C         2.585922        -0.129427        -1.141948
 O         3.873860        -0.551710        -0.891074
 C         4.170987        -0.330740         0.458185
 C         4.444946        -1.559011         1.322360
 C         3.088757        -0.965524         1.463956
 O         1.887249        -1.498253         0.836049
 H         0.117174         0.939913        -0.808912
 H        -0.271440        -0.093625         0.783620
 H         0.767930         1.304152         0.788998
 H         2.114596        -2.154258        -1.607946
 H         0.867034        -1.001661        -2.337255
 H         2.403557         0.941204        -1.335256
 H         4.503739         0.596302         0.849156
 H         4.597790        -2.420742         0.757643
 H         5.040631        -1.381480         2.186566
 H         2.943319        -0.424382         2.346737
