19
Iteration:  1281
 C         0.211029         0.266735         0.150605
 C         1.462881        -0.597812        -0.200784
 C         1.627568        -1.391516        -1.555229
 C         2.603038        -0.127963        -1.266039
 O         3.961258        -0.333585        -0.861282
 C         4.189550        -0.372669         0.514439
 C         4.486264        -1.740749         1.205993
 C         3.162005        -0.932435         1.511007
 O         1.890724        -1.223166         0.978041
 H         0.674763         1.103657         0.760424
 H        -0.218125         0.740124        -0.742292
 H        -0.586698        -0.466901         0.808024
 H         2.221020        -2.288420        -1.345104
 H         0.941131        -1.326278        -2.403158
 H         2.474974         0.954519        -1.674428
 H         4.823031         0.357034         0.874633
 H         4.164121        -2.666655         0.722025
 H         5.269330        -1.798352         1.973286
 H         3.133913        -0.359922         2.557378
