19
Iteration:  2340
 C         0.305855         0.330493         0.020207
 C         1.481677        -0.648941        -0.223061
 C         1.680089        -1.367875        -1.516895
 C         2.517139        -0.102950        -1.099407
 O         3.854363        -0.441760        -0.852976
 C         4.234911        -0.316481         0.536949
 C         4.429091        -1.697947         1.201553
 C         3.180516        -0.909203         1.425826
 O         1.914585        -1.299057         1.051782
 H         0.307613         1.063806         0.894488
 H         0.331869         1.059095        -0.801853
 H        -0.719985        -0.161991         0.120573
 H         2.347301        -2.192144        -1.386419
 H         0.937737        -1.290026        -2.376173
 H         2.373600         0.830108        -1.625340
 H         4.970701         0.627012         0.795935
 H         4.243695        -2.555505         0.531131
 H         5.224189        -2.030471         1.881131
 H         3.162749        -0.365996         2.371565
