19
Iteration:  3014charge 0 multiplicity 1
 C         0.464779         0.388208         0.285231
 C         1.522113        -0.641203        -0.216606
 C         1.550787        -1.269764        -1.607117
 C         2.518049        -0.170982        -1.291122
 O         3.868928        -0.504504        -0.874446
 C         4.130552        -0.440708         0.520317
 C         4.368884        -1.556669         1.500096
 C         3.077897        -0.819200         1.392420
 O         2.082059        -1.452543         0.774734
 H         0.785327         1.456042         0.518179
 H        -0.238608         0.340825        -0.471951
 H         0.192796        -0.063286         1.251950
 H         1.817432        -2.375509        -1.733388
 H         0.671449        -0.804714        -2.187772
 H         2.428918         0.899357        -1.457896
 H         4.576284         0.604619         0.577522
 H         4.542769        -2.569319         1.079445
 H         4.961808        -1.252697         2.351791
 H         2.889866        -0.233142         2.379047
