19
Iteration:   154charge 0 multiplicity 1
 C         0.296180         0.240082         0.137792
 C         1.500374        -0.557288        -0.191801
 C         1.599601        -1.347411        -1.452391
 C         2.605148        -0.079540        -1.164223
 O         3.930481        -0.492796        -0.979334
 C         4.252739        -0.327079         0.500381
 C         4.278623        -1.674365         1.309715
 C         3.137743        -0.737975         1.462833
 O         1.996128        -1.369898         0.915119
 H         0.527245         1.274942         0.529915
 H        -0.596675         0.357843        -0.622532
 H        -0.067136        -0.343433         1.031890
 H         2.272292        -2.238706        -1.458808
 H         0.776995        -1.459561        -2.144690
 H         2.377902         0.889645        -1.546729
 H         5.146232         0.285424         0.728766
 H         4.236436        -2.295636         0.450652
 H         4.850034        -1.928897         2.139011
 H         3.046629        -0.355813         2.408568
