19
Iteration:   745charge 0 multiplicity 1
 C         0.311708         0.244808         0.079155
 C         1.444246        -0.595951        -0.162943
 C         1.671128        -1.262907        -1.554002
 C         2.543749        -0.133724        -1.138961
 O         3.861882        -0.399728        -0.949740
 C         4.216542        -0.326220         0.542299
 C         4.389723        -1.721039         1.287677
 C         3.206733        -0.852461         1.504480
 O         1.950315        -1.363722         0.948906
 H         0.734587         1.281327         0.332957
 H        -0.307763         0.517279        -0.705884
 H        -0.291899        -0.148830         1.009073
 H         2.206135        -2.239403        -1.363190
 H         0.989212        -1.382535        -2.463059
 H         2.362107         0.877690        -1.618518
 H         4.865660         0.432355         0.732925
 H         4.278395        -2.597999         0.574394
 H         5.163053        -1.830406         2.137718
 H         3.035042        -0.345749         2.405013
