19
Iteration:  1884charge 0 multiplicity 1
 C         0.283382         0.337791         0.261988
 C         1.457762        -0.577615        -0.227175
 C         1.689265        -1.316392        -1.588715
 C         2.574441        -0.132992        -1.188141
 O         3.895511        -0.437720        -0.875843
 C         4.292012        -0.344065         0.506990
 C         4.326580        -1.659491         1.289139
 C         3.117885        -0.889882         1.410234
 O         1.943511        -1.346660         0.925722
 H         0.687199         0.983861         0.904053
 H        -0.187337         0.773832        -0.536658
 H        -0.487645        -0.401197         0.623333
 H         2.364759        -2.224107        -1.435111
 H         0.992196        -1.603216        -2.417877
 H         2.581416         0.719422        -1.856634
 H         4.901037         0.431842         0.805464
 H         4.292665        -2.506220         0.631198
 H         4.910560        -1.716519         2.207701
 H         3.060327        -0.334476         2.423763
