19
Iteration:  2498charge 0 multiplicity 1
 C         0.500850         0.300147         0.365813
 C         1.587960        -0.554520        -0.236876
 C         1.498745        -1.267345        -1.571388
 C         2.593817        -0.201413        -1.228651
 O         3.880685        -0.615757        -0.909498
 C         4.143653        -0.317962         0.474824
 C         4.366748        -1.462761         1.477017
 C         2.993102        -0.795308         1.443882
 O         2.052224        -1.458421         0.753647
 H         0.328128         0.223852         1.415464
 H         0.539364         1.358059        -0.056134
 H        -0.379792        -0.168712        -0.048992
 H         1.707231        -2.330777        -1.617308
 H         0.811300        -0.991681        -2.386063
 H         2.475642         0.736057        -1.818186
 H         4.796326         0.435385         0.628259
 H         4.281150        -2.348546         0.884889
 H         5.094160        -1.358699         2.223714
 H         2.644060        -0.209662         2.287453
