19
Iteration:  3430charge 0 multiplicity 1
 C         0.331657         0.345866         0.119654
 C         1.481511        -0.639441        -0.217749
 C         1.664010        -1.292966        -1.532719
 C         2.532781        -0.136835        -1.174716
 O         3.835623        -0.358962        -0.851247
 C         4.252468        -0.417723         0.511695
 C         4.340249        -1.736129         1.290138
 C         3.178452        -0.865591         1.468644
 O         1.984553        -1.339452         0.898297
 H         0.034026         0.980451        -0.784647
 H        -0.513491        -0.293446         0.588094
 H         0.648471         0.935512         1.045081
 H         2.131423        -2.237048        -1.368902
 H         0.984904        -1.302241        -2.346478
 H         2.277952         0.827606        -1.601832
 H         4.959634         0.328246         0.669302
 H         4.126347        -2.681741         0.745002
 H         5.151047        -1.647847         2.066228
 H         3.139749        -0.242208         2.374824
