19
Iteration:   665charge 0 multiplicity 1
 C         0.258900         0.207393         0.151069
 C         1.469365        -0.552902        -0.200853
 C         1.644355        -1.273346        -1.516575
 C         2.585977        -0.090864        -1.160747
 O         3.891858        -0.529353        -0.920150
 C         4.272657        -0.406517         0.499599
 C         4.393841        -1.635335         1.280085
 C         3.182157        -0.816938         1.483066
 O         1.928424        -1.308483         0.964050
 H         0.310728         0.542964         1.101006
 H        -0.019781         0.915648        -0.749951
 H        -0.507618        -0.498693         0.099010
 H         2.088623        -2.236482        -1.548705
 H         1.044304        -1.028966        -2.372100
 H         2.453128         0.891248        -1.648695
 H         4.748475         0.511361         0.792067
 H         4.120941        -2.342854         0.517400
 H         5.284319        -1.694886         1.874072
 H         3.103970        -0.256054         2.530126
