19
Iteration:  2743
 C         0.392148         0.331472         0.250493
 C         1.509496        -0.628645        -0.232334
 C         1.480898        -1.227795        -1.639786
 C         2.475207        -0.231771        -1.253945
 O         3.870352        -0.642631        -0.860821
 C         4.212538        -0.370028         0.448106
 C         4.432153        -1.452570         1.462476
 C         3.116537        -0.754240         1.445243
 O         2.084469        -1.428062         0.863084
 H        -0.382190        -0.308182         0.772600
 H         0.785906         0.808569         1.149815
 H         0.096601         0.964383        -0.615885
 H         1.710130        -2.257491        -1.640630
 H         0.740753        -0.924985        -2.273074
 H         2.474102         0.715629        -1.713030
 H         4.828173         0.514871         0.714655
 H         4.524646        -2.373208         1.003891
 H         5.091866        -1.325395         2.243707
 H         2.865022        -0.114146         2.273156
