19
Iteration:   759charge 0 multiplicity 1
 C         0.308250         0.344072         0.177011
 C         1.483810        -0.653056        -0.280522
 C         1.644059        -1.348317        -1.576778
 C         2.492645        -0.115568        -1.235813
 O         3.902605        -0.391239        -0.790652
 C         4.223725        -0.424944         0.500432
 C         4.474776        -1.657533         1.273758
 C         3.134016        -0.862344         1.474816
 O         1.958389        -1.348030         0.914264
 H         0.785336         1.286118         0.735015
 H        -0.362236         0.471374        -0.680670
 H        -0.345284        -0.164225         0.937941
 H         2.158700        -2.316290        -1.524680
 H         0.778601        -1.207424        -2.259781
 H         2.355924         0.874873        -1.658070
 H         4.715862         0.581516         0.922642
 H         4.178939        -2.602434         0.824661
 H         5.246278        -1.607855         2.059900
 H         3.016514        -0.299294         2.387857
