19
Iteration:  3568
 C         0.434224         0.399850         0.348250
 C         1.441717        -0.569302        -0.254987
 C         1.568440        -1.232946        -1.663821
 C         2.618384        -0.239286        -1.290563
 O         3.844522        -0.592776        -0.808032
 C         4.152995        -0.299830         0.573074
 C         4.420000        -1.572476         1.373227
 C         3.116158        -0.832433         1.478323
 O         2.007707        -1.478148         0.718381
 H        -0.201718         0.806141        -0.376470
 H        -0.180654         0.047936         1.189633
 H         0.863474         1.195218         0.858212
 H         1.872705        -2.288666        -1.503373
 H         1.022653        -0.920125        -2.479324
 H         2.421145         0.751296        -1.594656
 H         4.562904         0.760417         0.919872
 H         4.427626        -2.459852         0.625248
 H         5.088053        -1.681464         2.249716
 H         2.903159        -0.354105         2.493299
