19
Iteration:  1148
 C         0.495364         0.347557         0.277172
 C         1.478950        -0.621052        -0.268398
 C         1.479269        -1.246325        -1.552351
 C         2.569402        -0.187883        -1.193763
 O         3.906891        -0.532089        -0.927130
 C         4.124843        -0.301056         0.532267
 C         4.392515        -1.440379         1.496349
 C         3.080214        -0.897607         1.441793
 O         2.052895        -1.556557         0.732511
 H         1.035248         0.872429         0.973824
 H         0.195362         1.080223        -0.457037
 H        -0.315081        -0.090950         0.947809
 H         1.870940        -2.179551        -1.835293
 H         0.705387        -1.013469        -2.255730
 H         2.571521         0.805013        -1.600593
 H         4.479674         0.608731         0.687923
 H         4.382616        -2.403290         0.990688
 H         5.029689        -1.328580         2.363976
 H         2.682022        -0.208624         2.212225
