19
Iteration:  4131charge 0 multiplicity 1
 C         0.517990         0.357350         0.097797
 C         1.510730        -0.633601        -0.190241
 C         1.553496        -1.183268        -1.515793
 C         2.578177        -0.154871        -1.153443
 O         3.884652        -0.473994        -0.871051
 C         4.105502        -0.306107         0.566519
 C         4.465852        -1.590169         1.288747
 C         3.076599        -0.967138         1.435261
 O         1.902651        -1.450510         0.917904
 H         0.081333         0.766848        -0.831682
 H        -0.255826         0.008252         0.696181
 H         0.901920         1.138417         0.739989
 H         1.915854        -2.260292        -1.760554
 H         0.774878        -1.026483        -2.268955
 H         2.384424         0.708913        -1.735349
 H         4.569565         0.583778         0.757412
 H         4.431073        -2.379673         0.508252
 H         5.324798        -1.777290         2.073988
 H         3.009512        -0.664315         2.449077
