19
Iteration:   760charge 0 multiplicity 1
 C         0.311701         0.349215         0.188352
 C         1.482667        -0.651110        -0.276238
 C         1.639359        -1.360314        -1.577892
 C         2.493084        -0.113477        -1.234285
 O         3.905806        -0.390965        -0.785670
 C         4.217304        -0.428146         0.495752
 C         4.479861        -1.659494         1.275572
 C         3.128423        -0.863617         1.473881
 O         1.960712        -1.346786         0.908401
 H         0.772479         1.274931         0.740883
 H        -0.379250         0.476558        -0.705587
 H        -0.320507        -0.172602         0.894221
 H         2.145804        -2.317547        -1.579256
 H         0.804754        -1.191451        -2.245138
 H         2.384739         0.858363        -1.675485
 H         4.738554         0.596439         0.923087
 H         4.192030        -2.579177         0.807072
 H         5.222335        -1.566265         2.039569
 H         2.985874        -0.276737         2.413592
