19
Iteration:  1847
 C         0.330729         0.297650        -0.007028
 C         1.472401        -0.596401        -0.218256
 C         1.579283        -1.390978        -1.460249
 C         2.548021        -0.169194        -1.195711
 O         3.926679        -0.229648        -0.801123
 C         4.237963        -0.412709         0.565410
 C         4.325268        -1.753421         1.118418
 C         3.200244        -0.897391         1.525036
 O         1.996834        -1.318652         1.014178
 H         0.414931         1.252515         0.583566
 H        -0.028759         0.632504        -1.035955
 H        -0.470232        -0.153331         0.572082
 H         2.071259        -2.322600        -1.478180
 H         0.743121        -1.149714        -2.093120
 H         2.287472         0.634731        -1.962012
 H         4.923662         0.431885         0.881305
 H         4.055072        -2.718176         0.608663
 H         5.206307        -1.827804         1.786439
 H         3.136237        -0.355112         2.525224
