19
Iteration:  3841charge 0 multiplicity 1
 C         0.266068         0.244561         0.246160
 C         1.466907        -0.609662        -0.243639
 C         1.550939        -1.094163        -1.699278
 C         2.571368        -0.119023        -1.209399
 O         3.918620        -0.692782        -0.866629
 C         4.213863        -0.361560         0.514318
 C         4.458602        -1.620540         1.361026
 C         3.192118        -0.789445         1.519449
 O         2.005133        -1.378994         0.902792
 H         0.089490         1.140745        -0.386922
 H        -0.782632        -0.234469         0.010279
 H         0.265464         0.633055         1.289169
 H         1.753580        -2.088414        -2.040091
 H         0.694870        -0.771236        -2.224379
 H         2.804287         0.863520        -1.516740
 H         4.824944         0.609330         0.586360
 H         4.306971        -2.620218         0.889766
 H         5.101016        -1.427325         2.216719
 H         2.967984        -0.194033         2.453021
