19
Iteration:  1010
 C         0.237531         0.184467         0.058768
 C         1.463018        -0.579738        -0.162740
 C         1.693638        -1.271496        -1.422059
 C         2.538352        -0.107854        -1.204479
 O         3.977562        -0.470513        -0.904383
 C         4.225548        -0.403199         0.467979
 C         4.311679        -1.680555         1.155465
 C         3.202927        -0.825381         1.501747
 O         1.934526        -1.266461         1.059722
 H         0.197136         0.675386         1.129030
 H         0.153444         0.816783        -0.794795
 H        -0.568500        -0.472616         0.118495
 H         2.274203        -2.149763        -1.499858
 H         1.092486        -1.169905        -2.271619
 H         2.594278         0.859193        -1.723811
 H         4.709303         0.607729         0.915312
 H         4.023600        -2.533421         0.600505
 H         5.107814        -2.031784         1.747933
 H         3.189485        -0.026013         2.283851
