19
Iteration:   298charge 0 multiplicity 1
 C         0.347927         0.341410         0.311540
 C         1.464091        -0.641597        -0.112577
 C         1.558906        -1.194791        -1.592824
 C         2.616928        -0.210935        -1.250178
 O         3.893730        -0.710195        -0.932289
 C         4.121238        -0.288012         0.462199
 C         4.408775        -1.436253         1.444187
 C         3.105489        -0.752516         1.420159
 O         2.076361        -1.507356         0.762846
 H         0.545760         0.701224         1.405322
 H         0.202413         1.208654        -0.223033
 H        -0.644119        -0.271830         0.343555
 H         1.910504        -2.233886        -1.632264
 H         0.713148        -0.775629        -2.194858
 H         2.802185         0.841984        -1.554453
 H         4.656093         0.752775         0.633018
 H         4.311557        -2.445880         0.997840
 H         5.145919        -1.402327         2.302796
 H         2.796967        -0.141839         2.152753
