19
Iteration:  1778charge 0 multiplicity 1
 C         0.235243         0.173835         0.061148
 C         1.509168        -0.511085        -0.160374
 C         1.662866        -1.314855        -1.523061
 C         2.565205        -0.077191        -1.141900
 O         3.960352        -0.453450        -0.875508
 C         4.250809        -0.397184         0.481337
 C         4.309220        -1.740369         1.193617
 C         3.209736        -0.903710         1.495893
 O         1.948175        -1.180666         1.004519
 H         0.206884         0.732798         1.078209
 H        -0.127976         0.781441        -0.832871
 H        -0.369500        -0.583163         0.379768
 H         2.044127        -2.344564        -1.537275
 H         1.001215        -1.036612        -2.348948
 H         2.291986         0.754447        -1.743482
 H         4.617285         0.560573         0.995361
 H         4.138368        -2.538374         0.500300
 H         5.020075        -2.003248         1.939784
 H         3.178464        -0.346086         2.349370
