19
Iteration:   886charge 0 multiplicity 1
 C         0.264842         0.272701         0.251802
 C         1.457399        -0.616579        -0.255610
 C         1.575626        -1.180920        -1.517285
 C         2.579267        -0.155437        -1.242387
 O         3.919545        -0.607270        -0.889171
 C         4.199182        -0.345065         0.507669
 C         4.455313        -1.549928         1.451552
 C         3.125395        -0.773318         1.468184
 O         2.034066        -1.433967         0.751770
 H         0.603288         0.795333         1.065498
 H        -0.172745         0.968706        -0.440652
 H        -0.514426        -0.509279         0.549653
 H         1.833456        -2.286458        -1.575907
 H         0.758728        -0.836832        -2.244306
 H         2.527556         0.930609        -1.590906
 H         4.700835         0.512334         0.703079
 H         4.352416        -2.497023         0.828166
 H         5.255122        -1.528592         2.297654
 H         2.956604        -0.137952         2.351189
