19
Iteration:  1600
 C         0.242148         0.244383         0.165139
 C         1.481771        -0.566336        -0.212150
 C         1.680927        -1.161397        -1.551090
 C         2.601676        -0.082015        -1.188540
 O         3.837168        -0.617113        -0.838820
 C         4.189964        -0.355501         0.519551
 C         4.407259        -1.616815         1.275369
 C         3.201185        -0.852869         1.526134
 O         2.004838        -1.352387         0.849658
 H         0.449268         1.039603         0.955440
 H        -0.218216         0.700192        -0.651898
 H        -0.560239        -0.471237         0.575280
 H         2.010374        -2.219391        -1.718619
 H         0.965809        -0.889047        -2.354525
 H         2.621102         0.784645        -1.860103
 H         4.738678         0.489282         0.765008
 H         4.260522        -2.606021         0.807942
 H         5.099887        -1.762348         2.125296
 H         2.942738        -0.292990         2.489881
