19
Iteration:  1500charge 0 multiplicity 1
 C         0.271693         0.335126         0.121265
 C         1.430243        -0.536994        -0.194329
 C         1.624567        -1.333902        -1.468325
 C         2.526687        -0.196652        -1.173072
 O         4.033775        -0.348746        -0.847006
 C         4.269810        -0.400312         0.493505
 C         4.450248        -1.652903         1.186464
 C         3.142473        -0.888558         1.441730
 O         1.858852        -1.382463         0.941649
 H         0.414996         0.986306         1.001328
 H         0.030984         0.963866        -0.759659
 H        -0.594400        -0.379631         0.535198
 H         1.985157        -2.335889        -1.313343
 H         1.036445        -1.256172        -2.375992
 H         2.461416         0.706104        -1.849080
 H         4.807182         0.377721         0.855992
 H         4.424094        -2.597663         0.630716
 H         5.080356        -1.731135         2.065055
 H         2.923187        -0.363367         2.528650
