19
Iteration:  1862
 C         0.291535         0.314759         0.113109
 C         1.522556        -0.596951        -0.180070
 C         1.670184        -1.393280        -1.445074
 C         2.578499        -0.144964        -1.140397
 O         3.961410        -0.269402        -0.887916
 C         4.150971        -0.422223         0.479069
 C         4.389099        -1.756709         1.214616
 C         3.131414        -0.837404         1.479993
 O         1.903536        -1.319060         0.921152
 H         0.747400         1.047543         0.650229
 H        -0.186960         0.713820        -0.704455
 H        -0.515777        -0.278271         0.642774
 H         1.989440        -2.472000        -1.294961
 H         0.990669        -1.233568        -2.334345
 H         2.507156         0.718863        -1.782083
 H         4.818206         0.288518         0.815231
 H         4.178056        -2.593105         0.554897
 H         5.246460        -1.851341         1.896028
 H         3.013252        -0.298943         2.491749
