19
Iteration:  3326charge 0 multiplicity 1
 C         0.366848         0.274308         0.124165
 C         1.511463        -0.610825        -0.158373
 C         1.537712        -1.116582        -1.647481
 C         2.557464        -0.127826        -1.124661
 O         3.878597        -0.661063        -0.859655
 C         4.168231        -0.319573         0.509201
 C         4.442592        -1.584996         1.363048
 C         3.155736        -0.840971         1.457999
 O         2.000476        -1.435432         0.889723
 H        -0.058437         0.960301        -0.613891
 H        -0.556730        -0.231008         0.548631
 H         0.759677         0.808683         0.991311
 H         2.001464        -2.102199        -2.048815
 H         0.613228        -0.735654        -2.168519
 H         2.437415         0.988133        -1.318551
 H         4.749188         0.645543         0.333132
 H         4.474341        -2.453126         0.736339
 H         5.115527        -1.647608         2.182021
 H         2.959029        -0.208197         2.312099
