19
Iteration:  2717charge 0 multiplicity 1
 C         0.351995         0.379435         0.135915
 C         1.499843        -0.665166        -0.161236
 C         1.528376        -1.256432        -1.530394
 C         2.535958        -0.239378        -1.139694
 O         3.838674        -0.646534        -0.855086
 C         4.183854        -0.316386         0.445249
 C         4.568656        -1.433582         1.306572
 C         3.172637        -0.826252         1.462501
 O         1.941530        -1.435600         0.890491
 H        -0.702901         0.076063         0.054605
 H         0.355761         0.681403         1.197364
 H         0.567838         1.119773        -0.642324
 H         1.947342        -2.301452        -1.650459
 H         0.808619        -0.856939        -2.443933
 H         2.522012         0.819862        -1.578130
 H         4.650704         0.625413         0.571432
 H         4.579629        -2.470205         0.806432
 H         5.186997        -1.367670         2.282271
 H         2.941318        -0.156394         2.331199
