19
Iteration:  2068charge 0 multiplicity 1
 C         0.209213         0.248612        -0.000730
 C         1.490825        -0.643485        -0.195396
 C         1.682902        -1.189240        -1.570008
 C         2.614970        -0.170366        -1.095959
 O         3.899372        -0.493074        -0.830001
 C         4.204350        -0.336694         0.549687
 C         4.403576        -1.750435         1.137348
 C         3.163992        -0.870977         1.494685
 O         1.956510        -1.239141         1.057967
 H         0.461877         1.176071         0.447373
 H        -0.301406         0.538394        -0.851477
 H        -0.605282        -0.316922         0.552128
 H         2.242288        -2.110593        -1.594569
 H         0.854350        -1.003517        -2.306578
 H         2.561966         0.849379        -1.455294
 H         4.730513         0.493133         0.789422
 H         4.031297        -2.369818         0.371299
 H         5.163336        -2.003768         1.785908
 H         3.369003        -0.408829         2.508358
