19
Iteration:  2612charge 0 multiplicity 1
 C         0.284581         0.230727         0.126364
 C         1.480695        -0.597042        -0.184233
 C         1.634755        -1.277877        -1.526781
 C         2.470797        -0.155544        -1.174627
 O         3.890575        -0.558438        -0.917510
 C         4.289996        -0.403502         0.490856
 C         4.385300        -1.643827         1.295518
 C         3.187319        -0.801800         1.494036
 O         2.008215        -1.239650         0.926368
 H        -0.544540        -0.428161         0.551113
 H         0.423995         1.077485         0.808230
 H        -0.289581         0.789093        -0.663814
 H         2.240859        -2.125480        -1.487040
 H         0.782512        -1.205556        -2.224137
 H         2.456784         0.803184        -1.708767
 H         4.833236         0.597502         0.764236
 H         4.142386        -2.646611         0.941915
 H         5.229961        -1.552338         1.976679
 H         2.984800        -0.179209         2.364959
