19
Iteration:  3109
 C         0.297040         0.287977         0.107855
 C         1.478154        -0.620144        -0.185251
 C         1.548565        -1.181348        -1.556437
 C         2.495672        -0.235725        -1.103015
 O         3.847886        -0.601301        -0.872396
 C         4.255957        -0.369716         0.457544
 C         4.496286        -1.542750         1.320403
 C         3.230943        -0.779338         1.458236
 O         2.017741        -1.379638         0.912936
 H        -0.041417         0.434890         1.121690
 H         0.435184         1.276308        -0.539229
 H        -0.569911        -0.212948        -0.343145
 H         1.952195        -2.262923        -1.658850
 H         0.771065        -0.613257        -2.221747
 H         2.461655         0.884501        -1.300807
 H         4.669019         0.519340         0.733550
 H         4.249204        -2.486588         0.823515
 H         5.098104        -1.848780         2.158744
 H         2.937451        -0.134602         2.306512
