19
Iteration:  4021charge 0 multiplicity 1
 C         0.280989         0.255217         0.173929
 C         1.462830        -0.603227        -0.194881
 C         1.588056        -1.120669        -1.583242
 C         2.525882        -0.054383        -1.070935
 O         3.830641        -0.741879        -0.876660
 C         4.227432        -0.434568         0.463522
 C         4.425036        -1.556070         1.392655
 C         3.188476        -0.753139         1.454666
 O         2.017209        -1.397818         0.783983
 H         0.385581         1.072822        -0.531523
 H        -0.554966        -0.317227         0.151625
 H         0.574916         0.624628         1.142811
 H         2.205024        -2.028257        -1.597541
 H         0.858981        -0.664543        -2.424901
 H         2.480512         1.044301        -1.227553
 H         4.857423         0.380520         0.520261
 H         4.457024        -2.635940         0.958877
 H         5.162064        -1.347376         2.231360
 H         3.056421        -0.128810         2.346297
