19
Iteration:    36charge 0 multiplicity 1
 C         0.419477         0.315849         0.312974
 C         1.538621        -0.593561        -0.197491
 C         1.525043        -1.252347        -1.558465
 C         2.576220        -0.217968        -1.202681
 O         3.901717        -0.598807        -0.907298
 C         4.198691        -0.366398         0.435407
 C         4.417958        -1.464597         1.481429
 C         3.082415        -0.784439         1.350761
 O         1.997586        -1.458391         0.802706
 H         0.503001         0.430628         1.471430
 H         0.382536         1.221019        -0.078211
 H        -0.581422        -0.196003         0.093007
 H         1.816943        -2.292673        -1.548590
 H         0.759417        -0.970291        -2.304264
 H         2.449966         0.752437        -1.704553
 H         4.451650         0.727844         0.628980
 H         4.355425        -2.435493         1.058212
 H         5.054097        -1.385500         2.350779
 H         2.762978        -0.010035         1.956271
