19
Iteration:   622charge 0 multiplicity 1
 C         0.391123         0.319274         0.181791
 C         1.510656        -0.603141        -0.213326
 C         1.542884        -1.249506        -1.615522
 C         2.494629        -0.184461        -1.139710
 O         3.821247        -0.531978        -0.846211
 C         4.275347        -0.341412         0.469262
 C         4.516342        -1.539309         1.416628
 C         3.091747        -0.890490         1.507184
 O         2.015351        -1.447022         0.798195
 H         0.694156         0.748135         1.080068
 H         0.258255         1.263010        -0.526461
 H        -0.604622        -0.078072         0.328074
 H         1.916860        -2.225906        -1.778873
 H         0.789311        -1.026653        -2.339709
 H         2.309618         0.783662        -1.641904
 H         4.549524         0.638019         0.600221
 H         4.371864        -2.474301         0.923618
 H         5.202784        -1.368127         2.244924
 H         2.695921        -0.162608         2.321284
