19
Iteration:  3719charge 0 multiplicity 1
 C         0.374753         0.366367         0.076885
 C         1.465875        -0.628469        -0.135633
 C         1.602575        -1.162699        -1.527833
 C         2.535911        -0.063632        -1.118991
 O         3.855016        -0.542215        -0.834017
 C         4.210161        -0.385868         0.496328
 C         4.397108        -1.654661         1.263545
 C         3.111709        -0.870629         1.561399
 O         2.047102        -1.488716         0.821877
 H        -0.079834         0.813558        -0.863445
 H        -0.500771        -0.107020         0.609873
 H         0.688993         1.338897         0.533812
 H         1.971763        -2.130002        -1.613275
 H         0.942913        -1.037508        -2.357137
 H         2.430140         0.872134        -1.602874
 H         4.869771         0.515213         0.632264
 H         4.210410        -2.590080         0.664640
 H         5.210884        -1.546505         2.055478
 H         2.884567        -0.273168         2.470494
