19
Iteration:  2399charge 0 multiplicity 1
 C         0.231496         0.290792         0.201486
 C         1.405118        -0.578451        -0.267836
 C         1.662791        -1.360377        -1.498406
 C         2.588689        -0.128619        -1.152947
 O         3.934592        -0.361885        -0.862205
 C         4.299218        -0.441577         0.570741
 C         4.331804        -1.728975         1.262624
 C         3.109660        -0.822262         1.421959
 O         2.025551        -1.289400         0.849038
 H         0.637405         1.191952         0.499579
 H        -0.600588         0.360151        -0.565107
 H        -0.380958        -0.161286         1.007602
 H         2.095587        -2.347701        -1.373009
 H         1.123029        -1.311286        -2.401350
 H         2.325945         0.778527        -1.746246
 H         5.066624         0.159430         0.896364
 H         4.143928        -2.704006         0.818802
 H         5.082856        -1.635559         2.072581
 H         3.039932        -0.093480         2.267313
