19
Iteration:   713charge 0 multiplicity 1
 C         0.201086         0.184411        -0.000462
 C         1.465456        -0.561724        -0.162377
 C         1.622101        -1.217786        -1.510317
 C         2.574657        -0.095490        -1.148965
 O         3.899093        -0.441841        -0.868094
 C         4.241846        -0.377222         0.528587
 C         4.483994        -1.773520         1.179329
 C         3.206335        -0.802484         1.505421
 O         1.933129        -1.309114         1.000070
 H         0.595715         1.161504         0.544066
 H        -0.347148         0.260285        -0.861075
 H        -0.478867        -0.357139         0.816680
 H         2.122150        -2.212851        -1.313198
 H         0.822093        -1.259988        -2.320251
 H         2.623899         0.906004        -1.631694
 H         4.896180         0.427736         0.801171
 H         4.027212        -2.556281         0.529975
 H         5.238833        -1.838577         2.018291
 H         3.077826        -0.209149         2.333212
