19
Iteration:  1166charge 0 multiplicity 1
 C         0.450788         0.317824         0.310467
 C         1.496252        -0.649776        -0.151662
 C         1.605641        -1.218127        -1.615655
 C         2.593333        -0.207618        -1.199524
 O         3.932582        -0.602355        -0.847287
 C         4.134705        -0.251214         0.492895
 C         4.387085        -1.507554         1.284789
 C         3.033300        -0.786924         1.460255
 O         1.992868        -1.510569         0.786666
 H         0.574932         1.093110         1.172513
 H         0.099163         1.125198        -0.471085
 H        -0.446642        -0.275560         0.610113
 H         1.822330        -2.309155        -1.498001
 H         0.856763        -0.977086        -2.409420
 H         2.513596         0.778606        -1.630842
 H         4.674047         0.795308         0.716009
 H         4.367425        -2.435695         0.674635
 H         5.047752        -1.401169         2.160436
 H         2.713219        -0.382906         2.381759
