19
Iteration:  2950
 C         0.334476         0.256641         0.089503
 C         1.525565        -0.612584        -0.247979
 C         1.541328        -1.174968        -1.614717
 C         2.572789        -0.076525        -1.196794
 O         3.835999        -0.618749        -0.846669
 C         4.238311        -0.422069         0.469664
 C         4.501057        -1.597370         1.314707
 C         3.136455        -0.843797         1.560444
 O         1.965071        -1.322718         0.967930
 H         0.391321         1.342923         0.523933
 H        -0.408392         0.455011        -0.680180
 H        -0.168734        -0.421992         0.872412
 H         1.883679        -2.206832        -1.731396
 H         0.727528        -1.036187        -2.325983
 H         2.542859         0.942105        -1.535049
 H         4.765191         0.535435         0.876280
 H         4.473932        -2.497855         0.645525
 H         5.232294        -1.545460         2.100679
 H         2.983214        -0.284710         2.536308
