19
Iteration:  3567charge 0 multiplicity 1
 C         0.444722         0.393657         0.352636
 C         1.443064        -0.566135        -0.257858
 C         1.559753        -1.233671        -1.663101
 C         2.612171        -0.243543        -1.308269
 O         3.843758        -0.587922        -0.802615
 C         4.158247        -0.306034         0.576943
 C         4.410475        -1.570035         1.382276
 C         3.125607        -0.837007         1.486311
 O         2.009105        -1.472160         0.713925
 H        -0.270644         0.772316        -0.391137
 H        -0.186883         0.030677         1.149064
 H         0.893214         1.189524         0.886521
 H         1.875242        -2.278452        -1.515661
 H         1.019150        -0.882607        -2.494691
 H         2.410720         0.758513        -1.589158
 H         4.566017         0.774598         0.886055
 H         4.429049        -2.437464         0.668384
 H         5.075956        -1.690048         2.239254
 H         2.932195        -0.357585         2.463531
