19
Iteration:  1789charge 0 multiplicity 1
 C         0.221718         0.183029         0.094806
 C         1.522186        -0.523499        -0.211010
 C         1.733722        -1.260941        -1.444696
 C         2.589891        -0.107140        -1.170999
 O         3.963208        -0.430285        -0.963136
 C         4.208692        -0.378162         0.510788
 C         4.391066        -1.780986         1.166290
 C         3.137763        -0.929713         1.521892
 O         1.841830        -1.195410         1.072866
 H         0.306792         0.974793         0.939924
 H        -0.182937         0.725509        -0.843679
 H        -0.482547        -0.576076         0.166212
 H         2.240368        -2.218937        -1.259686
 H         0.977457        -1.276745        -2.218684
 H         2.587802         0.787106        -1.735447
 H         4.816270         0.593685         0.730688
 H         4.259358        -2.433760         0.337986
 H         5.191074        -1.995710         1.837143
 H         3.181806        -0.416326         2.411953
