19
Iteration:   932
 C         0.326570         0.268965         0.111728
 C         1.469338        -0.690425        -0.191747
 C         1.634516        -1.327984        -1.502108
 C         2.557164        -0.088458        -1.095186
 O         3.942475        -0.409945        -0.926339
 C         4.170696        -0.304334         0.506243
 C         4.415600        -1.671591         1.212340
 C         3.111494        -0.860653         1.504449
 O         1.947633        -1.354364         0.948898
 H         0.918036         1.209045         0.208121
 H        -0.165704         0.515050        -0.752009
 H        -0.328444         0.027502         0.919586
 H         2.194947        -2.257408        -1.477110
 H         0.819066        -1.283213        -2.213068
 H         2.576136         0.810255        -1.735611
 H         4.691201         0.609166         0.841964
 H         4.073778        -2.548648         0.662038
 H         5.205781        -1.874368         1.926888
 H         2.986179        -0.308442         2.432151
