19
Iteration:   182
 C         0.193031         0.275759         0.113488
 C         1.482881        -0.538525        -0.178106
 C         1.706029        -1.351424        -1.539336
 C         2.566791        -0.170333        -1.112769
 O         3.893164        -0.407158        -0.894137
 C         4.219759        -0.497839         0.461681
 C         4.486084        -1.684451         1.251157
 C         3.170986        -0.806203         1.490001
 O         1.902378        -1.256412         0.972595
 H         0.442895         1.281959         0.423360
 H        -0.562604         0.295617        -0.683392
 H        -0.274081        -0.218010         0.932304
 H         1.958844        -2.367132        -1.725619
 H         0.987236        -0.961605        -2.263877
 H         2.402633         0.603798        -1.887247
 H         4.981604         0.203359         0.748431
 H         4.379883        -2.646661         0.718411
 H         5.401183        -1.554713         1.896881
 H         3.084019        -0.162587         2.476616
