19
Iteration:    12charge 0 multiplicity 1
 C         0.304544         0.335633         0.246362
 C         1.465847        -0.622896        -0.153652
 C         1.604484        -1.223403        -1.524113
 C         2.610195        -0.151494        -1.209512
 O         3.980494        -0.625866        -0.986693
 C         4.145704        -0.320647         0.465874
 C         4.357889        -1.542561         1.343579
 C         3.067606        -0.744969         1.516141
 O         2.043306        -1.476523         0.855817
 H         0.540571         0.909674         1.165416
 H         0.071405         1.056026        -0.564626
 H        -0.645422        -0.225183         0.417911
 H         1.852401        -2.251682        -1.380721
 H         0.795506        -1.066173        -2.234411
 H         2.446343         0.766282        -1.743797
 H         4.933051         0.422373         0.591423
 H         4.447421        -2.501321         0.899598
 H         5.181541        -1.204479         1.944520
 H         2.764469        -0.455912         2.497271
