19
Iteration:  2577
 C         0.262723         0.318454         0.056877
 C         1.452660        -0.573355        -0.144984
 C         1.543077        -1.188827        -1.598081
 C         2.593666        -0.218613        -1.131382
 O         3.879255        -0.668110        -0.842948
 C         4.230121        -0.288395         0.530748
 C         4.523208        -1.540981         1.247855
 C         3.188003        -0.892985         1.495678
 O         1.948501        -1.345050         0.936281
 H        -0.081426        -0.099264         1.095069
 H         0.615951         1.335767         0.307398
 H        -0.385486         0.143460        -0.819560
 H         1.868218        -2.310044        -1.752914
 H         0.717974        -0.899490        -2.337085
 H         2.429254         0.756020        -1.702819
 H         4.537886         0.723027         0.713687
 H         4.599244        -2.550403         0.736322
 H         5.333155        -1.381466         2.060975
 H         3.038036        -0.321605         2.449058
