19
Iteration:  2510charge 0 multiplicity 1
 C         0.486976         0.280575         0.353412
 C         1.516817        -0.634742        -0.240894
 C         1.473206        -1.266963        -1.610809
 C         2.594271        -0.236627        -1.281614
 O         3.946697        -0.552609        -0.882857
 C         4.152222        -0.305143         0.493598
 C         4.307292        -1.517945         1.443350
 C         3.098028        -0.685238         1.459647
 O         2.015117        -1.501923         0.777007
 H         0.596533         0.186300         1.457491
 H         0.740445         1.358603         0.190886
 H        -0.531320         0.189261        -0.002946
 H         1.719177        -2.379772        -1.650303
 H         0.727775        -0.774908        -2.265205
 H         2.580667         0.625506        -1.990104
 H         4.532632         0.609033         0.681454
 H         4.320285        -2.543467         1.051407
 H         5.018555        -1.401177         2.237893
 H         2.802051        -0.038530         2.294965
