19
Iteration:  2484
 C         0.371262         0.345469         0.264011
 C         1.475094        -0.569435        -0.214421
 C         1.563799        -1.207663        -1.560266
 C         2.580377        -0.188340        -1.224851
 O         3.877403        -0.691705        -0.868573
 C         4.154065        -0.341268         0.508142
 C         4.406844        -1.482282         1.395940
 C         3.115635        -0.801293         1.475343
 O         2.053026        -1.483589         0.706552
 H         0.619002         0.479867         1.313091
 H         0.451140         1.448943        -0.020162
 H        -0.644770        -0.170956         0.173076
 H         1.979139        -2.168529        -1.471091
 H         0.748348        -1.045366        -2.227576
 H         2.542074         0.868392        -1.537986
 H         4.509531         0.801795         0.563932
 H         4.536957        -2.529107         1.199148
 H         5.013338        -1.212340         2.279105
 H         2.794263        -0.170026         2.301395
