19
Iteration:  4929charge 0 multiplicity 1
 C         0.191239         0.187028         0.206816
 C         1.519170        -0.540743        -0.232606
 C         1.633952        -1.095032        -1.601528
 C         2.609737        -0.120116        -1.235414
 O         3.893959        -0.605680        -0.898540
 C         4.271484        -0.551997         0.445842
 C         4.358458        -1.690609         1.437286
 C         3.201845        -0.758138         1.408796
 O         1.959073        -1.242053         0.964715
 H        -0.052508         1.069230        -0.558809
 H        -0.449292        -0.806816         0.316555
 H         0.284498         0.689907         1.207488
 H         1.970753        -2.188863        -1.775096
 H         0.921090        -0.668402        -2.349007
 H         2.586784         0.947727        -1.667859
 H         4.697003         0.329900         0.684661
 H         4.133172        -2.723333         1.059752
 H         5.051489        -1.708218         2.345628
 H         3.218864         0.032352         2.245821
