19
Iteration:  1268charge 0 multiplicity 1
 C         0.329166         0.158373         0.158190
 C         1.475370        -0.588184        -0.278761
 C         1.716024        -1.271987        -1.546915
 C         2.509604        -0.143736        -1.232621
 O         3.872241        -0.359552        -0.874074
 C         4.217530        -0.457126         0.566571
 C         4.444077        -1.775544         1.237826
 C         3.199463        -0.841534         1.494439
 O         1.893156        -1.152202         0.982026
 H         0.511975         0.913660         0.905257
 H        -0.228193         0.654209        -0.743174
 H        -0.604760        -0.499538         0.704297
 H         2.206730        -2.238491        -1.447650
 H         0.965114        -1.389394        -2.293366
 H         2.308999         0.803469        -1.739757
 H         4.809437         0.375830         0.807724
 H         4.234553        -2.679433         0.665112
 H         5.330596        -1.871344         1.876975
 H         2.963138        -0.256406         2.473585
