19
Iteration:  1652charge 0 multiplicity 1
 C         0.507294         0.418265         0.343887
 C         1.561409        -0.601908        -0.148332
 C         1.546007        -1.192040        -1.648734
 C         2.567861        -0.179075        -1.208082
 O         3.965510        -0.551218        -0.924590
 C         4.022484        -0.360251         0.485286
 C         4.391466        -1.447057         1.473121
 C         3.021814        -0.883843         1.440181
 O         2.019260        -1.634739         0.724172
 H         0.812561         0.983820         1.133429
 H         0.280291         1.135412        -0.423034
 H        -0.522904        -0.095079         0.489169
 H         1.816848        -2.237666        -1.651095
 H         0.796647        -0.971161        -2.345048
 H         2.356213         0.876141        -1.500800
 H         4.350673         0.588837         0.828417
 H         4.691061        -2.360607         0.990156
 H         5.103732        -1.192344         2.231681
 H         2.582126        -0.242320         2.316249
