19
Iteration:  1707charge 0 multiplicity 1
 C         0.368304         0.276133         0.241610
 C         1.513800        -0.557365        -0.256922
 C         1.527382        -1.148265        -1.662496
 C         2.619337        -0.150822        -1.176049
 O         3.914861        -0.647570        -0.826262
 C         4.162701        -0.323326         0.483890
 C         4.482468        -1.457301         1.363646
 C         3.061064        -0.876496         1.491694
 O         1.956055        -1.511135         0.820466
 H         0.874826         0.837934         0.959753
 H         0.063850         0.967961        -0.496230
 H        -0.413893        -0.263812         0.924476
 H         1.940347        -2.159079        -1.761506
 H         0.883489        -0.760743        -2.424846
 H         2.606597         0.900707        -1.576531
 H         4.504513         0.631870         0.767679
 H         4.284319        -2.397527         0.864090
 H         5.159220        -1.486153         2.236659
 H         2.780380        -0.319617         2.488568
