19
Iteration:  2237
 C         0.521950         0.276067         0.405565
 C         1.558290        -0.637381        -0.274891
 C         1.575534        -1.182016        -1.671323
 C         2.543167        -0.140014        -1.241100
 O         3.880667        -0.620081        -0.931312
 C         4.140437        -0.352598         0.497262
 C         4.317367        -1.495784         1.508300
 C         3.043136        -0.797695         1.509536
 O         2.003796        -1.500878         0.719925
 H         1.009398         1.127959         0.949928
 H        -0.140877         0.637056        -0.423681
 H        -0.093357        -0.259549         1.058980
 H         1.908295        -2.163950        -1.978972
 H         0.914380        -0.658176        -2.373124
 H         2.575201         0.962556        -1.467189
 H         4.663097         0.510834         0.655161
 H         4.463411        -2.557387         1.120525
 H         4.786158        -1.064865         2.433480
 H         2.802054        -0.086069         2.315516
