19
Iteration:  4727charge 0 multiplicity 1
 C         0.238197         0.235218         0.120388
 C         1.547769        -0.546247        -0.205605
 C         1.597273        -1.173398        -1.597981
 C         2.571505        -0.088224        -1.179827
 O         3.848224        -0.595604        -0.919946
 C         4.200232        -0.417584         0.553595
 C         4.388214        -1.746566         1.344744
 C         3.204459        -0.754664         1.523230
 O         2.013175        -1.284937         0.923840
 H        -0.078058         0.655271        -0.815420
 H        -0.411795        -0.607359         0.481563
 H         0.651106         0.705848         1.014394
 H         2.022489        -2.099360        -1.740220
 H         0.701453        -0.949435        -2.266563
 H         2.533830         0.888086        -1.622929
 H         4.952091         0.375359         0.703519
 H         3.961252        -2.637140         0.904147
 H         5.313171        -1.760447         1.933227
 H         3.039113        -0.007746         2.364653
