19
Iteration:  2371
 C         0.314671         0.253470         0.132023
 C         1.528284        -0.530737        -0.233117
 C         1.585539        -1.388274        -1.508227
 C         2.617430        -0.182967        -1.216597
 O         3.946033        -0.249808        -0.897387
 C         4.192818        -0.379766         0.531606
 C         4.292908        -1.754506         1.264711
 C         3.147755        -0.875129         1.500770
 O         1.991501        -1.308334         0.968345
 H         0.454976         1.264628         0.724943
 H        -0.269329         0.520488        -0.748468
 H        -0.443305        -0.403891         0.546332
 H         1.921038        -2.380575        -1.272652
 H         0.919613        -1.199948        -2.439047
 H         2.381115         0.608314        -1.889809
 H         5.084617         0.281975         0.909525
 H         3.969404        -2.676051         0.796906
 H         5.141973        -1.884374         1.893160
 H         3.129235        -0.318450         2.412136
