19
Iteration:  1783
 C         0.237550         0.204328         0.077558
 C         1.516209        -0.511213        -0.204734
 C         1.703943        -1.288426        -1.479275
 C         2.555699        -0.087152        -1.134179
 O         3.971228        -0.451348        -0.933270
 C         4.240230        -0.372674         0.486715
 C         4.326940        -1.759382         1.192759
 C         3.178304        -0.943840         1.512720
 O         1.905173        -1.182124         1.043298
 H         0.216966         0.749530         0.970940
 H        -0.077510         0.701423        -0.806999
 H        -0.436903        -0.769915         0.328735
 H         2.087087        -2.297248        -1.430952
 H         1.010112        -1.161596        -2.325671
 H         2.392145         0.794156        -1.833555
 H         4.589102         0.535138         0.942777
 H         4.214795        -2.469511         0.339224
 H         5.148763        -2.019790         1.902500
 H         3.168198        -0.240543         2.459449
