19
Iteration:  1277
 C         0.231947         0.226683         0.179305
 C         1.466158        -0.595592        -0.208512
 C         1.644626        -1.353448        -1.563892
 C         2.579536        -0.132619        -1.291449
 O         3.939804        -0.335476        -0.866161
 C         4.176599        -0.400327         0.547460
 C         4.499684        -1.760609         1.219203
 C         3.178071        -0.916634         1.506406
 O         1.881523        -1.182290         0.975138
 H         0.727156         0.935955         0.758241
 H        -0.230221         0.649399        -0.806242
 H        -0.534236        -0.372360         0.687254
 H         2.232932        -2.229458        -1.298342
 H         0.949201        -1.379564        -2.394269
 H         2.483824         0.847387        -1.565046
 H         4.902166         0.435616         0.842719
 H         4.098331        -2.659546         0.756940
 H         5.341386        -1.815216         1.915439
 H         3.004979        -0.351597         2.417685
