19
Iteration:  4477charge 0 multiplicity 1
 C         0.389166         0.479603         0.213288
 C         1.473560        -0.577377        -0.169841
 C         1.609515        -1.379271        -1.596382
 C         2.594050        -0.207281        -1.177107
 O         3.909162        -0.442797        -0.840118
 C         4.173971        -0.337139         0.522133
 C         4.509687        -1.605806         1.219176
 C         3.130116        -0.933839         1.420892
 O         1.845264        -1.435973         0.880770
 H        -0.034410         1.042398        -0.649345
 H        -0.445048        -0.010990         0.801865
 H         0.954124         1.141631         0.852626
 H         2.103355        -2.380826        -1.331941
 H         0.874940        -1.228108        -2.364401
 H         2.236880         0.765243        -1.425918
 H         4.522239         0.584921         0.898366
 H         4.493257        -2.453457         0.512013
 H         5.140283        -1.747855         2.146894
 H         2.959166        -0.348056         2.438776
