19
Iteration:   882charge 0 multiplicity 1
 C         0.263540         0.262259         0.243291
 C         1.498663        -0.573673        -0.192377
 C         1.537178        -1.160129        -1.540915
 C         2.590558        -0.174996        -1.257090
 O         3.909486        -0.627561        -0.871127
 C         4.223516        -0.336202         0.484029
 C         4.449168        -1.541056         1.461447
 C         3.069620        -0.761654         1.412138
 O         2.050763        -1.482790         0.777196
 H         0.624800         0.703150         1.237096
 H        -0.210283         1.037073        -0.527348
 H        -0.483073        -0.506136         0.417194
 H         1.897264        -2.160449        -1.587331
 H         0.794826        -0.812210        -2.214306
 H         2.599537         0.841395        -1.563484
 H         4.769177         0.672156         0.798168
 H         4.378584        -2.383469         0.813434
 H         5.198954        -1.501032         2.207128
 H         2.920981        -0.134397         2.309272
