19
Iteration:   933
 C         0.318522         0.261936         0.109666
 C         1.476870        -0.684546        -0.181509
 C         1.627876        -1.329821        -1.497847
 C         2.549422        -0.090656        -1.089896
 O         3.954413        -0.409543        -0.924176
 C         4.168799        -0.311283         0.505169
 C         4.408987        -1.666046         1.203224
 C         3.104112        -0.866238         1.497737
 O         1.953271        -1.352048         0.950301
 H         0.931420         1.262381         0.177233
 H        -0.151674         0.531009        -0.788559
 H        -0.316358         0.036533         0.900561
 H         2.190762        -2.230241        -1.477234
 H         0.847985        -1.298656        -2.207256
 H         2.580510         0.786818        -1.727519
 H         4.709440         0.652401         0.867198
 H         4.088918        -2.539940         0.677819
 H         5.187363        -1.865937         1.881828
 H         2.990517        -0.333522         2.442410
