19
Iteration:  1122charge 0 multiplicity 1
 C         0.527325         0.341346         0.351484
 C         1.452897        -0.586714        -0.252796
 C         1.515842        -1.212644        -1.740569
 C         2.511786        -0.231908        -1.214027
 O         3.812942        -0.553636        -0.854106
 C         4.139822        -0.374125         0.560172
 C         4.450843        -1.430580         1.485596
 C         3.056151        -0.867250         1.483758
 O         2.072725        -1.551665         0.739720
 H         0.992873         1.282200         0.852443
 H         0.198195         0.901921        -0.658557
 H        -0.236124         0.013381         1.015847
 H         1.717322        -2.325603        -1.857848
 H         0.869337        -0.909406        -2.607334
 H         2.482313         0.756527        -1.652737
 H         4.889872         0.557218         0.625495
 H         4.754162        -2.449117         1.173769
 H         5.059372        -0.895981         2.252375
 H         2.680109        -0.344545         2.319204
