19
Iteration:  2967charge 0 multiplicity 1
 C         0.267640         0.261443         0.178333
 C         1.525866        -0.562352        -0.150614
 C         1.590986        -1.131710        -1.585038
 C         2.615567        -0.188625        -1.166397
 O         3.863397        -0.701696        -0.843579
 C         4.147637        -0.240206         0.544873
 C         4.456274        -1.597616         1.304108
 C         3.166218        -0.891886         1.424949
 O         1.968093        -1.346972         0.867475
 H         0.641764         1.231918         0.340058
 H        -0.325033         0.251238        -0.750271
 H        -0.144599        -0.025844         1.087098
 H         2.041744        -2.208973        -1.828171
 H         0.753792        -0.760481        -2.234417
 H         2.622339         0.810461        -1.715716
 H         4.620131         0.648199         0.487870
 H         4.497372        -2.518379         0.794409
 H         5.066206        -1.563441         2.212836
 H         3.117119        -0.307212         2.344463
