19
Iteration:  4971
 C         0.272998         0.280984         0.107560
 C         1.492396        -0.464021        -0.192892
 C         1.624747        -1.222075        -1.480767
 C         2.577958        -0.102110        -1.160038
 O         3.846252        -0.548090        -0.858551
 C         4.219424        -0.406295         0.487537
 C         4.330742        -1.777522         1.319935
 C         3.220420        -0.782461         1.438156
 O         2.048010        -1.344764         0.900665
 H         0.107357         1.026601        -0.762054
 H        -0.619131        -0.382486         0.200662
 H         0.559596         0.845289         0.995347
 H         2.058096        -2.283306        -1.449184
 H         0.874428        -1.195866        -2.294381
 H         2.516036         0.828974        -1.780839
 H         4.819036         0.418085         0.712706
 H         4.028632        -2.641466         0.675710
 H         4.988203        -1.874967         2.227756
 H         2.937579        -0.196374         2.289330
