19
Iteration:  4665
 C         0.460194         0.418359         0.166818
 C         1.514154        -0.526397        -0.200137
 C         1.587948        -1.390991        -1.499532
 C         2.528602        -0.284290        -1.243472
 O         3.865262        -0.419983        -0.789040
 C         4.154619        -0.267676         0.600917
 C         4.398314        -1.692169         1.124959
 C         3.116595        -0.913484         1.535119
 O         1.972643        -1.360150         0.856517
 H         0.023430         1.112511        -0.654298
 H        -0.517786        -0.041835         0.527214
 H         0.771396         1.246848         0.761141
 H         2.056350        -2.376736        -1.442726
 H         0.842348        -1.247624        -2.375331
 H         2.429538         0.655092        -1.817337
 H         4.812917         0.470097         0.861353
 H         4.444711        -2.533567         0.491315
 H         5.122203        -1.704393         1.929185
 H         2.920228        -0.642751         2.546848
