19
Iteration:  3456charge 0 multiplicity 1
 C         0.158531         0.309779         0.099198
 C         1.457204        -0.577145        -0.142793
 C         1.591201        -1.172334        -1.473238
 C         2.620948        -0.164851        -1.136945
 O         3.984334        -0.552513        -0.898025
 C         4.208298        -0.345622         0.550837
 C         4.467915        -1.658580         1.249810
 C         3.176903        -0.893631         1.414326
 O         1.931472        -1.364968         0.905390
 H         0.236133         1.151511        -0.632889
 H        -0.716238        -0.250041         0.061507
 H         0.226432         0.708805         1.120715
 H         2.012573        -2.228418        -1.422811
 H         0.889110        -1.054162        -2.342338
 H         2.482731         0.801286        -1.700446
 H         4.896076         0.599077         0.771267
 H         4.319102        -2.537841         0.661056
 H         5.130784        -1.613537         2.063503
 H         3.138515        -0.297112         2.290115
