19
Iteration:   700charge 0 multiplicity 1
 C         0.189158         0.205651         0.089398
 C         1.459461        -0.548678        -0.231427
 C         1.650129        -1.280706        -1.539793
 C         2.506393        -0.082673        -1.155615
 O         3.891616        -0.458304        -0.857090
 C         4.277203        -0.402202         0.503854
 C         4.448124        -1.740387         1.275417
 C         3.239419        -0.870188         1.514846
 O         1.956492        -1.212808         0.971638
 H         0.166392         1.151262         0.609775
 H        -0.315312         0.505416        -0.847387
 H        -0.470969        -0.577519         0.595952
 H         2.144702        -2.270273        -1.600997
 H         1.020031        -1.035553        -2.390837
 H         2.267905         0.827859        -1.747723
 H         4.910771         0.350010         0.669915
 H         4.460650        -2.585937         0.579011
 H         5.246195        -1.956674         2.005922
 H         3.200289        -0.456339         2.540137
