19
Iteration:  1920charge 0 multiplicity 1
 C         0.343388         0.244113         0.161590
 C         1.574621        -0.584883        -0.185274
 C         1.450012        -1.113542        -1.680998
 C         2.578918        -0.130847        -1.166422
 O         3.864352        -0.665479        -0.819194
 C         4.171793        -0.352717         0.483242
 C         4.441143        -1.518037         1.400715
 C         3.135846        -0.803562         1.498966
 O         2.049661        -1.482899         0.861139
 H         0.339839         0.937960         1.042168
 H         0.126033         0.935105        -0.718631
 H        -0.457009        -0.337670         0.427688
 H         1.822443        -2.105441        -1.774332
 H         0.701542        -0.669726        -2.321166
 H         2.709419         0.833768        -1.647666
 H         4.783349         0.643742         0.548638
 H         4.478483        -2.439395         0.833570
 H         5.127650        -1.477945         2.213253
 H         2.836524        -0.270239         2.305645
