19
Iteration:  2617
 C         0.284687         0.234267         0.135114
 C         1.524140        -0.561911        -0.214007
 C         1.646345        -1.277823        -1.472052
 C         2.473301        -0.147362        -1.197881
 O         3.884698        -0.532792        -0.906161
 C         4.235498        -0.419005         0.418682
 C         4.369294        -1.631436         1.299556
 C         3.176577        -0.798825         1.500601
 O         2.025945        -1.262672         0.937871
 H        -0.507012        -0.437417         0.370870
 H         0.452243         0.902569         1.012460
 H        -0.207263         0.721112        -0.692892
 H         2.248891        -2.255183        -1.385187
 H         0.896595        -1.259369        -2.245761
 H         2.468190         0.834179        -1.655388
 H         4.852065         0.383185         0.740759
 H         3.959888        -2.591922         0.979434
 H         5.167240        -1.581053         2.050161
 H         3.022638        -0.185196         2.395333
