19
Iteration:  2295
 C         0.282979         0.223402         0.043859
 C         1.499810        -0.519553        -0.184493
 C         1.475223        -1.195283        -1.556112
 C         2.577663        -0.126904        -1.233047
 O         3.895536        -0.591672        -0.817340
 C         4.227152        -0.389148         0.512297
 C         4.471725        -1.609052         1.332857
 C         3.208604        -0.836543         1.532791
 O         1.986220        -1.363461         0.881147
 H         0.287668         0.645400         1.112604
 H         0.055295         1.073391        -0.532294
 H        -0.557993        -0.452944         0.070410
 H         1.849724        -2.223092        -1.587100
 H         0.685788        -0.871787        -2.254665
 H         2.617971         0.861160        -1.601287
 H         4.634716         0.681152         0.797710
 H         4.546267        -2.474076         0.775152
 H         5.094824        -1.710042         2.157897
 H         3.200808        -0.239414         2.382367
