19
Iteration:  3921charge 0 multiplicity 1
 C         0.435538         0.336988         0.115998
 C         1.565304        -0.595717        -0.177857
 C         1.573042        -1.295637        -1.534290
 C         2.547232        -0.195207        -1.197156
 O         3.879935        -0.350664        -0.804964
 C         4.171788        -0.403933         0.509960
 C         4.317429        -1.704648         1.228875
 C         3.107918        -0.820793         1.467137
 O         1.983448        -1.404365         0.923773
 H        -0.107268         0.544167        -0.787270
 H        -0.137068        -0.191203         0.929311
 H         0.908296         1.161246         0.629161
 H         2.011666        -2.368186        -1.572724
 H         0.820863        -0.984867        -2.405658
 H         2.403089         0.860537        -1.619110
 H         4.911077         0.440289         0.725056
 H         4.124339        -2.569742         0.680985
 H         5.144939        -1.791635         1.923192
 H         2.923551        -0.295735         2.367644
