19
Iteration:  2319charge 0 multiplicity 1
 C         0.245381         0.318070        -0.022664
 C         1.425592        -0.589668        -0.131638
 C         1.703024        -1.239606        -1.528609
 C         2.558121        -0.173269        -1.075921
 O         3.872517        -0.554323        -0.846862
 C         4.179693        -0.392061         0.487387
 C         4.516694        -1.610975         1.195987
 C         3.189142        -0.870645         1.481739
 O         1.901066        -1.306098         0.980409
 H         0.180284         0.817421         0.930992
 H         0.258089         1.199752        -0.673103
 H        -0.771067        -0.213988        -0.089998
 H         2.222727        -2.166759        -1.437563
 H         0.850342        -1.092773        -2.216489
 H         2.526816         0.817969        -1.536597
 H         4.787566         0.600288         0.704569
 H         4.576789        -2.514573         0.561085
 H         5.317641        -1.705027         1.937722
 H         3.295298        -0.703896         2.532126
