19
Iteration:  4561
 C         0.245060         0.214076         0.405131
 C         1.518264        -0.562485        -0.273755
 C         1.518508        -1.074500        -1.650038
 C         2.582462        -0.155932        -1.220056
 O         4.001487        -0.712784        -0.918621
 C         4.241174        -0.460501         0.457850
 C         4.372598        -1.541564         1.483215
 C         3.123180        -0.723876         1.363193
 O         1.972572        -1.367053         0.838103
 H        -0.223188         0.941673        -0.207744
 H        -0.503350        -0.545035         0.570597
 H         0.534991         0.663907         1.447038
 H         1.845543        -2.069846        -1.719707
 H         0.894582        -0.718626        -2.390730
 H         2.838395         0.751319        -1.669131
 H         4.914633         0.440224         0.724411
 H         4.239948        -2.503674         1.027187
 H         5.098258        -1.506548         2.304175
 H         3.001105         0.048682         2.126822
