19
Iteration:  4303charge 0 multiplicity 1
 C         0.585182         0.418124         0.277353
 C         1.442290        -0.718147        -0.236138
 C         1.583883        -1.252376        -1.635262
 C         2.541306        -0.205644        -1.245343
 O         3.840925        -0.449379        -0.871224
 C         4.113638        -0.326861         0.596497
 C         4.349849        -1.603858         1.321112
 C         3.083864        -0.804876         1.533179
 O         2.046740        -1.489005         0.763694
 H         0.166686         1.106260        -0.476044
 H        -0.301638         0.052029         0.935382
 H         1.148753         1.045835         0.907110
 H         1.977093        -2.250703        -1.666172
 H         0.773708        -1.134551        -2.383833
 H         2.318719         0.764682        -1.611853
 H         4.576185         0.515819         1.029054
 H         4.369227        -2.595183         0.890246
 H         5.078721        -1.748665         2.140583
 H         2.727916        -0.248362         2.330773
