19
Iteration:  3365charge 0 multiplicity 1
 C         0.148505         0.404856         0.172115
 C         1.446031        -0.510773        -0.225269
 C         1.661982        -1.257102        -1.521582
 C         2.569792        -0.165302        -1.178300
 O         3.896028        -0.533654        -0.864620
 C         4.239560        -0.349904         0.538237
 C         4.502839        -1.650234         1.302122
 C         3.161209        -0.984264         1.475649
 O         1.976218        -1.389185         0.836984
 H        -0.552081         0.668266        -0.704903
 H        -0.284086        -0.183187         0.989212
 H         0.499241         1.467239         0.423093
 H         2.092760        -2.169133        -1.527664
 H         0.888434        -1.105402        -2.267608
 H         2.600728         0.836951        -1.575038
 H         4.658799         0.543446         0.983852
 H         4.611339        -2.390332         0.499558
 H         5.257703        -1.766199         2.194093
 H         2.950921        -0.413815         2.389503
