19
Iteration:  4911charge 0 multiplicity 1
 C         0.278585         0.202437         0.114554
 C         1.547510        -0.504407        -0.183322
 C         1.578821        -1.132279        -1.618969
 C         2.585544        -0.019881        -1.122581
 O         3.856814        -0.705039        -0.922702
 C         4.240740        -0.448055         0.473432
 C         4.405908        -1.650402         1.402816
 C         3.122367        -0.809720         1.505625
 O         1.957114        -1.316037         0.875919
 H        -0.059383         0.883266        -0.587066
 H        -0.546204        -0.328071         0.475025
 H         0.450744         0.847634         0.991730
 H         2.138519        -2.089945        -1.685669
 H         0.745229        -0.962584        -2.211699
 H         2.725606         0.950881        -1.572777
 H         5.125042         0.305888         0.506836
 H         4.433545        -2.692393         1.140695
 H         5.148414        -1.432941         2.114748
 H         3.135751        -0.226917         2.433928
