19
Iteration:  2477charge 0 multiplicity 1
 C         0.307319         0.360001         0.257396
 C         1.435161        -0.589396        -0.224268
 C         1.568485        -1.190101        -1.583140
 C         2.590719        -0.130152        -1.180384
 O         3.882864        -0.706722        -0.817072
 C         4.150370        -0.323947         0.461053
 C         4.472523        -1.515416         1.444176
 C         3.129022        -0.795830         1.435674
 O         2.039102        -1.496287         0.743152
 H         0.573965         0.598625         1.286595
 H         0.510791         1.288716        -0.320764
 H        -0.666999        -0.041623         0.281452
 H         1.983654        -2.197872        -1.664414
 H         0.752305        -1.076060        -2.338816
 H         2.545237         0.798385        -1.762150
 H         4.484550         0.602600         0.461225
 H         4.630369        -2.505084         1.031285
 H         5.089526        -1.191103         2.235569
 H         2.940574        -0.248591         2.362364
