19
Iteration:  4544charge 0 multiplicity 1
 C         0.280981         0.274273         0.337111
 C         1.427543        -0.531350        -0.177885
 C         1.626557        -1.151902        -1.580752
 C         2.655560        -0.146402        -1.176899
 O         3.866253        -0.678287        -0.880914
 C         4.270133        -0.410626         0.452436
 C         4.407334        -1.587870         1.403510
 C         3.131382        -0.783533         1.400153
 O         2.006453        -1.393814         0.754383
 H        -0.139821         1.102446        -0.365005
 H        -0.720072        -0.261947         0.543407
 H         0.615609         0.847921         1.148931
 H         1.795653        -2.296898        -1.787524
 H         0.756018        -0.910613        -2.386773
 H         2.549506         0.921177        -1.554376
 H         4.752089         0.504959         0.484954
 H         4.499245        -2.675097         1.167301
 H         4.995986        -1.322731         2.315852
 H         2.783215        -0.141153         2.278659
