19
Iteration:  2935charge 0 multiplicity 1
 C         0.245489         0.274680         0.119150
 C         1.474039        -0.570264        -0.182104
 C         1.632821        -1.236764        -1.620695
 C         2.506085        -0.149102        -1.123397
 O         3.877354        -0.516816        -0.885012
 C         4.203204        -0.415737         0.495571
 C         4.473597        -1.696154         1.324772
 C         3.221698        -0.798594         1.495055
 O         1.968683        -1.327914         0.929863
 H         0.634864         1.101754         0.700416
 H        -0.189421         0.679429        -0.812459
 H        -0.569554        -0.222666         0.572138
 H         2.267599        -2.246558        -1.681638
 H         0.746192        -1.015968        -2.294598
 H         2.442734         0.901432        -1.539673
 H         4.904382         0.330308         0.575014
 H         4.243888        -2.693120         1.054481
 H         5.307304        -1.552093         2.011600
 H         3.029886        -0.090640         2.319047
