19
Iteration:   664charge 0 multiplicity 1
 C         0.255973         0.213911         0.147874
 C         1.477450        -0.551651        -0.189693
 C         1.643599        -1.278045        -1.521272
 C         2.584049        -0.097362        -1.158208
 O         3.888266        -0.529097        -0.927978
 C         4.279951        -0.407760         0.494041
 C         4.380412        -1.619312         1.284093
 C         3.178525        -0.826242         1.485151
 O         1.934225        -1.314877         0.962228
 H         0.309343         0.527666         1.129317
 H        -0.007514         0.922475        -0.758427
 H        -0.499314        -0.474146         0.101293
 H         2.111518        -2.242857        -1.543219
 H         1.036042        -0.987719        -2.373109
 H         2.480937         0.887300        -1.633313
 H         4.751717         0.580590         0.820905
 H         4.117452        -2.355261         0.525795
 H         5.295097        -1.725955         1.859637
 H         3.083663        -0.255774         2.542966
