19
Iteration:  3156charge 0 multiplicity 1
 C         0.286507         0.210076         0.245795
 C         1.506635        -0.486740        -0.210107
 C         1.616260        -1.272450        -1.525262
 C         2.566412        -0.164538        -1.199611
 O         3.914072        -0.492771        -0.951486
 C         4.181253        -0.394920         0.466532
 C         4.386141        -1.697652         1.385888
 C         3.179666        -0.769733         1.435974
 O         1.981293        -1.298421         0.889581
 H         0.200127         0.479511         1.374782
 H         0.105379         1.018669        -0.358745
 H        -0.600850        -0.464078         0.156421
 H         1.993918        -2.243601        -1.270104
 H         0.855015        -1.119402        -2.407007
 H         2.352525         0.687986        -1.857909
 H         4.937570         0.446685         0.615521
 H         4.403011        -2.646216         0.840097
 H         5.266882        -1.885026         2.053312
 H         2.927141        -0.122860         2.369900
