19
Iteration:  4210
 C         0.264168         0.173803         0.152476
 C         1.525958        -0.640397        -0.166169
 C         1.628851        -1.092549        -1.674465
 C         2.581488        -0.088659        -1.145749
 O         3.894039        -0.589305        -0.910086
 C         4.276610        -0.473475         0.479348
 C         4.305262        -1.632965         1.315271
 C         3.163679        -0.739927         1.514644
 O         2.004511        -1.362479         0.956077
 H         0.061748         1.007199        -0.489227
 H        -0.572858        -0.400014         0.181017
 H         0.395497         0.667366         1.115282
 H         1.926730        -2.085189        -1.823412
 H         0.694139        -0.621208        -2.078805
 H         2.505733         0.995967        -1.389476
 H         4.848919         0.499350         0.485266
 H         4.077119        -2.667470         1.014671
 H         5.075243        -1.846827         2.021478
 H         3.102131         0.177026         2.242633
