19
Iteration:  3387
 C         0.334136         0.275631         0.178115
 C         1.458024        -0.563685        -0.210696
 C         1.620938        -1.271259        -1.527713
 C         2.556154        -0.180617        -1.119473
 O         3.978594        -0.396048        -0.827713
 C         4.210183        -0.316513         0.490631
 C         4.382702        -1.737583         1.204421
 C         3.113097        -0.831224         1.412366
 O         1.914279        -1.384001         0.907203
 H        -0.333446         0.477916        -0.740271
 H        -0.102218        -0.153986         1.072593
 H         0.828683         1.290443         0.316816
 H         1.911786        -2.255980        -1.347573
 H         1.017172        -1.153338        -2.415016
 H         2.540065         0.768130        -1.643259
 H         4.948409         0.386570         0.844257
 H         4.241962        -2.685668         0.662533
 H         5.007114        -1.730796         2.168372
 H         2.988436        -0.381157         2.397684
