19
Iteration:    54charge 0 multiplicity 1
 C         0.451166         0.277221         0.288664
 C         1.410116        -0.660826        -0.292066
 C         1.471951        -1.255636        -1.674515
 C         2.552364        -0.209772        -1.227942
 O         3.810840        -0.672555        -0.814113
 C         4.223372        -0.277831         0.491097
 C         4.468658        -1.487933         1.434723
 C         3.115679        -0.748574         1.505523
 O         2.055589        -1.388313         0.780056
 H         0.626700         0.282590         1.309441
 H         0.670867         1.403224        -0.119811
 H        -0.584254         0.073810         0.222442
 H         1.762395        -2.281958        -1.796111
 H         0.721466        -0.943212        -2.405061
 H         2.469681         0.775712        -1.640619
 H         4.976928         0.453401         0.543711
 H         4.732334        -2.449101         1.028866
 H         5.031154        -1.063289         2.274743
 H         2.845098        -0.352308         2.535133
