19
Iteration:  1841
 C         0.320476         0.319970        -0.025757
 C         1.518811        -0.597888        -0.175202
 C         1.583356        -1.382997        -1.475971
 C         2.463204        -0.190739        -1.234540
 O         3.917653        -0.231852        -0.794583
 C         4.272757        -0.363242         0.565769
 C         4.359294        -1.797840         1.120384
 C         3.237951        -0.879809         1.553794
 O         1.967287        -1.310495         1.000895
 H         0.487560         1.256884         0.491730
 H        -0.074588         0.565401        -0.986347
 H        -0.564990        -0.282098         0.374844
 H         2.014403        -2.418517        -1.370231
 H         0.791509        -1.194577        -2.264536
 H         2.355268         0.768016        -1.699408
 H         4.914987         0.399011         0.906508
 H         4.016379        -2.667478         0.573186
 H         5.114477        -1.990477         1.880885
 H         3.158247        -0.462056         2.578196
