19
Iteration:  2694
 C         0.275165         0.387286         0.087715
 C         1.556024        -0.575534        -0.207704
 C         1.534676        -1.325061        -1.447036
 C         2.604719        -0.148159        -1.154448
 O         3.837243        -0.649664        -0.908891
 C         4.105980        -0.246571         0.471343
 C         4.501918        -1.569164         1.252559
 C         3.199605        -0.862486         1.517371
 O         1.993285        -1.390239         0.927341
 H        -0.645716        -0.067270        -0.256226
 H         0.170516         0.464990         1.183367
 H         0.512401         1.264248        -0.496844
 H         2.179833        -2.270248        -1.337255
 H         0.624748        -1.397439        -2.207458
 H         2.551326         0.866063        -1.678867
 H         4.467163         0.763388         0.610906
 H         4.686541        -2.538147         0.685078
 H         5.206330        -1.459712         2.180510
 H         3.058836        -0.341708         2.503806
