19
Iteration:  2277charge 0 multiplicity 1
 C         0.280002         0.255024         0.277715
 C         1.474673        -0.587908        -0.176230
 C         1.570992        -1.208974        -1.641337
 C         2.622863        -0.137338        -1.169755
 O         3.887131        -0.618494        -0.897194
 C         4.226500        -0.337005         0.505358
 C         4.383591        -1.598713         1.414550
 C         3.104514        -0.781641         1.465153
 O         2.073003        -1.382033         0.784206
 H         0.440243         0.846660         1.132533
 H         0.024938         0.968679        -0.566661
 H        -0.650734        -0.450288         0.353448
 H         1.790593        -2.248840        -1.750102
 H         0.863496        -0.748436        -2.371733
 H         2.488195         0.845586        -1.709930
 H         5.016121         0.434337         0.659266
 H         4.298609        -2.695104         1.070562
 H         5.169814        -1.460739         2.224178
 H         2.683194        -0.155125         2.377025
