19
Iteration:  4604charge 0 multiplicity 1
 C         0.290579         0.310166         0.182921
 C         1.464717        -0.570267        -0.213252
 C         1.544449        -1.137704        -1.587228
 C         2.543677        -0.081107        -1.145778
 O         3.809937        -0.703010        -0.863711
 C         4.268512        -0.424128         0.446887
 C         4.457108        -1.602165         1.408646
 C         3.114820        -0.775111         1.476209
 O         2.071685        -1.430219         0.824118
 H         0.090024         0.853771        -0.694247
 H        -0.482793        -0.242061         0.637252
 H         0.756868         0.900573         1.037445
 H         2.135348        -2.060887        -1.667271
 H         0.846421        -0.891346        -2.339148
 H         2.581275         0.976888        -1.535411
 H         4.748149         0.645536         0.596809
 H         4.346009        -2.592402         0.982358
 H         5.157384        -1.510807         2.258009
 H         2.945064        -0.021213         2.253358
