19
Iteration:  4153charge 0 multiplicity 1
 C         0.319814         0.410397         0.185371
 C         1.456356        -0.567106        -0.229187
 C         1.551885        -1.274682        -1.559191
 C         2.612685        -0.166242        -1.151418
 O         3.900977        -0.504382        -0.808710
 C         4.212236        -0.278037         0.577097
 C         4.429542        -1.688173         1.212651
 C         3.141342        -0.900090         1.530323
 O         1.995261        -1.417678         0.823459
 H         0.056891         0.919085        -0.776204
 H        -0.551575        -0.124688         0.425566
 H         0.445296         1.104725         1.030642
 H         1.781787        -2.400740        -1.677700
 H         0.958933        -1.193666        -2.464748
 H         2.403159         0.715328        -1.684193
 H         4.820647         0.554204         0.741738
 H         4.316246        -2.558583         0.553295
 H         5.203903        -1.766556         2.112865
 H         2.979820        -0.355039         2.438196
