19
Iteration:  4375
 C         0.269447         0.210599         0.170707
 C         1.486467        -0.525634        -0.225469
 C         1.556804        -1.055992        -1.622199
 C         2.631802        -0.120318        -1.215493
 O         3.805339        -0.746892        -0.757453
 C         4.184303        -0.360358         0.492710
 C         4.496910        -1.573043         1.297179
 C         3.173545        -0.851056         1.463991
 O         2.057807        -1.351598         0.883023
 H         0.016126         0.899063        -0.635472
 H        -0.556631        -0.471603         0.262230
 H         0.278315         0.875708         1.147675
 H         1.708809        -2.104852        -1.880258
 H         0.650909        -0.811226        -2.188420
 H         2.489012         0.969550        -1.411714
 H         4.868094         0.558621         0.701068
 H         4.496287        -2.516009         0.793283
 H         5.194666        -1.608938         2.123981
 H         2.896126        -0.337498         2.461473
