19
Iteration:  3247
 C         0.403344         0.365443         0.250731
 C         1.433169        -0.571899        -0.212146
 C         1.506548        -1.240119        -1.614652
 C         2.623711        -0.235866        -1.124001
 O         3.902557        -0.576384        -0.825360
 C         4.149748        -0.286721         0.509406
 C         4.456771        -1.550971         1.315953
 C         3.109880        -0.846576         1.393815
 O         2.036244        -1.483213         0.828125
 H         0.542940         1.467804         0.307273
 H        -0.462800         0.073646        -0.291840
 H         0.120576         0.211684         1.280809
 H         1.562049        -2.273266        -1.834121
 H         0.865390        -0.800447        -2.369383
 H         2.554682         0.765506        -1.594351
 H         4.578167         0.837998         0.565358
 H         4.405665        -2.607578         0.909607
 H         5.159896        -1.391870         2.161841
 H         2.897788        -0.364742         2.309066
