19
Iteration:  1853charge 0 multiplicity 1
 C         0.295728         0.295497         0.030713
 C         1.472999        -0.596551        -0.216815
 C         1.604225        -1.384310        -1.438435
 C         2.634059        -0.143206        -1.142295
 O         3.920171        -0.233209        -0.840788
 C         4.171967        -0.438127         0.517695
 C         4.346308        -1.743215         1.160906
 C         3.147154        -0.881377         1.506258
 O         1.988464        -1.315501         0.990148
 H         0.695679         1.182245         0.657498
 H        -0.050432         0.678821        -0.963162
 H        -0.471259        -0.184400         0.674012
 H         2.055434        -2.415627        -1.555499
 H         0.753792        -1.240268        -2.138597
 H         2.431148         0.477274        -1.959377
 H         4.937408         0.283143         0.877492
 H         4.140914        -2.577046         0.570060
 H         5.235756        -1.781997         1.739653
 H         3.102611        -0.361987         2.419680
