19
Iteration:  4654
 C         0.455412         0.440239         0.113748
 C         1.550217        -0.571610        -0.223188
 C         1.536734        -1.371654        -1.533490
 C         2.534151        -0.184749        -1.228845
 O         3.897225        -0.470634        -0.808939
 C         4.098361        -0.257216         0.580850
 C         4.453247        -1.634567         1.210201
 C         3.169867        -0.995475         1.549961
 O         1.906149        -1.346278         0.874532
 H         0.174993         0.860348        -0.905486
 H        -0.283730        -0.226234         0.661576
 H         0.892219         0.978068         0.898770
 H         1.761571        -2.389480        -1.275487
 H         0.637077        -1.183420        -2.268910
 H         2.415308         0.783248        -1.751368
 H         4.681496         0.560806         0.736290
 H         4.404518        -2.334533         0.417168
 H         5.214985        -1.784569         1.954356
 H         3.107387        -0.715336         2.574297
