19
Iteration:  1397charge 0 multiplicity 1
 C         0.336648         0.179207         0.318952
 C         1.552818        -0.535991        -0.262965
 C         1.453239        -1.112092        -1.644291
 C         2.579311        -0.148656        -1.207255
 O         3.849566        -0.705692        -0.822905
 C         4.155903        -0.417770         0.511647
 C         4.431247        -1.512249         1.480119
 C         3.099557        -0.754174         1.422079
 O         2.143405        -1.415832         0.722272
 H         0.675659         0.758637         1.187470
 H        -0.045860         1.027264        -0.414257
 H        -0.392479        -0.559759         0.588225
 H         1.831895        -2.126469        -1.702017
 H         0.681717        -0.619268        -2.260345
 H         2.628597         0.780967        -1.728766
 H         4.675898         0.608710         0.685036
 H         4.382676        -2.574968         1.144614
 H         5.130458        -1.101331         2.215536
 H         2.683038        -0.066424         2.188190
