19
Iteration:  2526charge 0 multiplicity 1
 C         0.437029         0.400515         0.329917
 C         1.407648        -0.687992        -0.244228
 C         1.525296        -1.284047        -1.633184
 C         2.585099        -0.283676        -1.237142
 O         3.936218        -0.538568        -0.882774
 C         4.172532        -0.336100         0.526551
 C         4.418659        -1.477476         1.434958
 C         3.038088        -0.794646         1.398655
 O         2.063405        -1.427427         0.801766
 H         0.356634         0.208944         1.421000
 H         0.936589         1.347824         0.188332
 H        -0.595035         0.097153        -0.007242
 H         1.712320        -2.320124        -1.806585
 H         0.788411        -1.038462        -2.395697
 H         2.290377         0.749496        -1.433822
 H         4.992894         0.566244         0.613059
 H         4.159841        -2.436593         0.983211
 H         5.103615        -1.432276         2.315772
 H         2.690801        -0.156817         2.223662
