19
Iteration:   937
 C         0.312587         0.259018         0.080822
 C         1.508698        -0.646593        -0.136728
 C         1.610038        -1.330191        -1.470244
 C         2.520011        -0.118480        -1.080646
 O         3.997989        -0.406658        -0.901798
 C         4.170842        -0.339540         0.506880
 C         4.365342        -1.628249         1.159661
 C         3.094354        -0.883142         1.467972
 O         1.970499        -1.350903         0.956535
 H         0.826996         1.335869         0.154835
 H        -0.181660         0.539490        -0.978743
 H        -0.374432         0.037204         0.955357
 H         2.240687        -2.227845        -1.481048
 H         0.866132        -1.326948        -2.287694
 H         2.488871         0.774946        -1.686568
 H         4.706840         0.634008         0.893808
 H         4.156175        -2.569903         0.635507
 H         5.223137        -1.815560         1.829405
 H         3.007461        -0.438138         2.481816
