19
Iteration:   216
 C         0.280722         0.266877         0.043535
 C         1.490671        -0.587340        -0.144570
 C         1.631756        -1.334340        -1.442364
 C         2.486877        -0.110997        -1.138009
 O         3.863794        -0.540383        -0.860142
 C         4.227175        -0.298845         0.520891
 C         4.435295        -1.675374         1.216817
 C         3.172157        -0.844707         1.444849
 O         1.992471        -1.292469         0.956499
 H         0.553814         1.067661         0.658420
 H         0.106330         0.704941        -1.005113
 H        -0.558704        -0.221250         0.394978
 H         2.120121        -2.260295        -1.707995
 H         0.743603        -1.090693        -1.988391
 H         2.628017         0.759741        -1.749851
 H         4.772244         0.564504         0.710807
 H         4.351575        -2.400317         0.407446
 H         5.166977        -1.948136         1.970392
 H         3.156190        -0.258730         2.481912
