19
Iteration:  1882charge 0 multiplicity 1
 C         0.296930         0.340270         0.254154
 C         1.442495        -0.566083        -0.224179
 C         1.698188        -1.314717        -1.582068
 C         2.573695        -0.155132        -1.189772
 O         3.901504        -0.420515        -0.883643
 C         4.305710        -0.343418         0.515357
 C         4.321850        -1.659577         1.278773
 C         3.118072        -0.903946         1.401623
 O         1.938457        -1.345957         0.933952
 H         0.646775         1.061490         0.956301
 H        -0.174307         0.728823        -0.589541
 H        -0.476148        -0.445548         0.625052
 H         2.351911        -2.200945        -1.429192
 H         1.009430        -1.653564        -2.396837
 H         2.459500         0.750498        -1.863493
 H         4.871644         0.435726         0.853284
 H         4.232732        -2.579751         0.626554
 H         4.921390        -1.718204         2.232018
 H         3.071311        -0.301757         2.452565
