19
Iteration:  3337charge 0 multiplicity 1
 C         0.367911         0.276241         0.129670
 C         1.549923        -0.602179        -0.195245
 C         1.545479        -1.123860        -1.569252
 C         2.548561        -0.119945        -1.138868
 O         3.780051        -0.637407        -0.819598
 C         4.199417        -0.357005         0.502156
 C         4.495064        -1.584813         1.316057
 C         3.135611        -0.908014         1.486901
 O         1.999687        -1.368434         0.846415
 H         0.115551         0.580933        -0.865672
 H        -0.384354        -0.418122         0.586103
 H         0.565212         1.190386         0.707466
 H         1.834187        -2.207974        -1.896720
 H         0.737981        -0.675106        -2.192189
 H         2.665141         0.923944        -1.563781
 H         4.650058         0.629308         0.897772
 H         4.556912        -2.471538         0.705654
 H         5.168712        -1.468702         2.116126
 H         2.947604        -0.387741         2.420979
