19
Iteration:  3840
 C         0.266277         0.239665         0.248800
 C         1.465986        -0.615173        -0.243795
 C         1.555185        -1.097757        -1.707702
 C         2.564642        -0.115467        -1.211026
 O         3.921847        -0.688546        -0.870039
 C         4.213280        -0.363742         0.509316
 C         4.464469        -1.620630         1.368414
 C         3.190487        -0.788568         1.517443
 O         2.003374        -1.382142         0.905112
 H         0.111942         1.184857        -0.373016
 H        -0.802238        -0.215304         0.022207
 H         0.269734         0.680294         1.285133
 H         1.741874        -2.060786        -1.994788
 H         0.708975        -0.734572        -2.236316
 H         2.776689         0.853931        -1.530728
 H         4.812060         0.572079         0.590413
 H         4.295152        -2.629055         0.906127
 H         5.133321        -1.420450         2.256028
 H         2.949653        -0.196262         2.455075
