19
Iteration:  2029charge 0 multiplicity 1
 C         0.351943         0.408185         0.120882
 C         1.442077        -0.619931        -0.190566
 C         1.610725        -1.298925        -1.517118
 C         2.508108        -0.124831        -1.187981
 O         3.932953        -0.411618        -0.871876
 C         4.177173        -0.397208         0.572013
 C         4.435018        -1.679302         1.345622
 C         3.151678        -0.949045         1.414479
 O         1.993153        -1.386469         0.853303
 H         0.764435         1.272577         0.730442
 H        -0.196970         0.699015        -0.863752
 H        -0.390181        -0.080497         0.784012
 H         2.005105        -2.313639        -1.487836
 H         0.877237        -1.250909        -2.325207
 H         2.199591         0.792311        -1.724297
 H         4.564407         0.656228         1.062832
 H         4.603862        -2.669555         0.836192
 H         5.288518        -1.496731         2.100397
 H         2.786693        -0.333655         2.214670
