19
Iteration:  1466charge 0 multiplicity 1
 C         0.398550         0.340536         0.133371
 C         1.505354        -0.569362        -0.180663
 C         1.547439        -1.289654        -1.572991
 C         2.464146        -0.147439        -1.253456
 O         3.863776        -0.507902        -0.790577
 C         4.194533        -0.296756         0.564571
 C         4.419048        -1.610231         1.275239
 C         3.160496        -0.921826         1.472030
 O         2.039724        -1.427991         0.881811
 H         0.794968         1.069055         0.793717
 H        -0.001300         0.944918        -0.791279
 H        -0.579020        -0.210540         0.510609
 H         2.116041        -2.219192        -1.588011
 H         0.741727        -1.071129        -2.257790
 H         2.536899         0.817299        -1.854373
 H         4.701105         0.610530         0.813852
 H         4.462482        -2.398254         0.549039
 H         4.990433        -1.533688         2.195365
 H         2.945163        -0.528350         2.634075
