19
Iteration:  2871
 C         0.258117         0.329428         0.144478
 C         1.504035        -0.529588        -0.209505
 C         1.602397        -1.365763        -1.588610
 C         2.510653        -0.248927        -1.260520
 O         3.896941        -0.453388        -0.857787
 C         4.260515        -0.302832         0.500197
 C         4.455074        -1.671429         1.294888
 C         3.208082        -0.868454         1.502723
 O         1.915213        -1.282889         0.972254
 H         0.311020         0.143911         1.237434
 H         0.504603         1.288036        -0.194651
 H        -0.724487         0.010461        -0.151099
 H         1.989205        -2.481399        -1.477729
 H         0.723699        -1.149034        -2.291762
 H         2.409278         0.697831        -1.816417
 H         4.933498         0.438685         0.699979
 H         4.480697        -2.472797         0.626239
 H         5.063966        -1.854447         2.158023
 H         3.164461        -0.368837         2.495258
