19
Iteration:  2368
 C         0.313987         0.245203         0.113377
 C         1.544569        -0.550920        -0.238851
 C         1.586833        -1.384297        -1.496739
 C         2.597693        -0.184393        -1.222569
 O         3.946779        -0.262220        -0.895092
 C         4.199712        -0.372411         0.544157
 C         4.295043        -1.760511         1.210171
 C         3.130050        -0.871303         1.539343
 O         1.994384        -1.300656         0.978277
 H         0.426143         1.169629         0.671058
 H        -0.179066         0.702914        -0.762945
 H        -0.417662        -0.354781         0.553412
 H         1.926638        -2.382507        -1.242340
 H         1.006411        -1.108950        -2.367110
 H         2.339896         0.694379        -1.830849
 H         4.928204         0.226890         0.840420
 H         4.126184        -2.737916         0.839157
 H         5.130802        -1.858209         1.889280
 H         3.081432        -0.217245         2.414331
