19
Iteration:  1535charge 0 multiplicity 1
 C         0.318693         0.212953         0.066288
 C         1.502190        -0.594210        -0.193351
 C         1.688012        -1.313498        -1.550694
 C         2.510216        -0.052196        -1.173454
 O         3.877523        -0.418281        -0.828663
 C         4.231158        -0.452903         0.489638
 C         4.344808        -1.732353         1.158929
 C         3.174946        -0.820924         1.587984
 O         1.957374        -1.241075         0.989853
 H         0.478010         0.984530         0.940661
 H        -0.053795         0.713327        -0.747824
 H        -0.490008        -0.573367         0.245930
 H         2.362020        -2.192386        -1.487101
 H         0.913899        -1.190082        -2.337916
 H         2.322650         0.845235        -1.759312
 H         4.965186         0.302721         0.725380
 H         3.945641        -2.602406         0.570748
 H         5.178805        -1.954952         1.858846
 H         3.216308        -0.162419         2.514064
