19
Iteration:  3580charge 0 multiplicity 1
 C         0.408980         0.468439         0.304978
 C         1.462469        -0.603753        -0.228017
 C         1.630476        -1.241687        -1.608698
 C         2.566992        -0.160097        -1.111577
 O         3.919851        -0.614510        -0.824057
 C         4.104187        -0.299497         0.553717
 C         4.452565        -1.548553         1.271126
 C         3.031130        -0.883106         1.404519
 O         1.988296        -1.498715         0.774258
 H        -0.184134         0.848462        -0.447594
 H        -0.293529        -0.061177         1.005674
 H         1.024806         1.196028         0.715381
 H         1.932419        -2.304642        -1.557649
 H         0.917442        -1.089248        -2.362052
 H         2.661938         0.714771        -1.705637
 H         4.686228         0.689461         0.707998
 H         4.435719        -2.522277         0.632222
 H         5.166857        -1.516567         2.125329
 H         2.677452        -0.358032         2.367251
