19
Iteration:  3861
 C         0.296593         0.141003         0.133753
 C         1.584146        -0.483545        -0.195061
 C         1.567501        -1.115892        -1.525117
 C         2.585600        -0.087281        -1.113426
 O         3.825140        -0.737890        -0.793299
 C         4.219395        -0.362096         0.482116
 C         4.446324        -1.608900         1.282550
 C         3.142474        -0.815586         1.428092
 O         1.993899        -1.317319         0.840712
 H        -0.016570         1.112367        -0.380467
 H        -0.665396        -0.539639         0.016088
 H         0.300675         0.698108         1.126193
 H         1.874327        -2.079405        -1.531288
 H         0.943545        -0.683076        -2.259768
 H         2.653869         0.849924        -1.597088
 H         4.796749         0.550570         0.581076
 H         4.268993        -2.445653         0.533807
 H         5.195422        -1.711956         2.151803
 H         2.880731        -0.312214         2.407376
