19
Iteration:  3891charge 0 multiplicity 1
 C         0.155227         0.341013         0.129446
 C         1.513319        -0.565792        -0.219799
 C         1.601877        -1.221465        -1.557576
 C         2.496032        -0.102860        -1.144666
 O         3.958632        -0.505448        -0.906597
 C         4.261669        -0.457442         0.491272
 C         4.437963        -1.680913         1.356164
 C         3.175715        -0.882003         1.469567
 O         1.997437        -1.364270         0.930667
 H        -0.373937         0.850111        -0.744535
 H        -0.661300        -0.147723         0.568403
 H         0.506954         0.977451         0.976756
 H         2.151523        -2.136762        -1.830215
 H         0.856692        -1.000090        -2.420860
 H         2.540836         0.931724        -1.508326
 H         4.864907         0.355299         0.660001
 H         4.380331        -2.636920         0.761058
 H         5.251518        -1.540008         2.195115
 H         2.925681        -0.332350         2.385505
