19
Iteration:  2842
 C         0.264181         0.371263         0.032270
 C         1.458243        -0.583908        -0.111384
 C         1.644308        -1.264493        -1.468655
 C         2.553536        -0.195652        -1.108079
 O         3.839151        -0.583257        -0.857509
 C         4.153305        -0.346709         0.455425
 C         4.505186        -1.556730         1.230464
 C         3.148424        -0.855276         1.479246
 O         1.986637        -1.420208         0.897585
 H         0.198911         0.320919         1.171681
 H         0.777914         1.339624        -0.213708
 H        -0.601538         0.274960        -0.698342
 H         2.001035        -2.260111        -1.297935
 H         0.909863        -1.026300        -2.120846
 H         2.465520         0.778745        -1.530009
 H         4.782509         0.629578         0.604582
 H         4.623756        -2.454527         0.660315
 H         5.232587        -1.602239         2.029438
 H         3.103255        -0.200791         2.363811
