19
Iteration:  1280
 C         0.216779         0.259997         0.158288
 C         1.463627        -0.598054        -0.199560
 C         1.629041        -1.385217        -1.559706
 C         2.599735        -0.128278        -1.274680
 O         3.957010        -0.333646        -0.861964
 C         4.187128        -0.375889         0.521776
 C         4.491786        -1.746322         1.209093
 C         3.164469        -0.931997         1.508502
 O         1.888007        -1.212396         0.976737
 H         0.694466         1.055205         0.747601
 H        -0.224561         0.728207        -0.775003
 H        -0.604529        -0.474626         0.803285
 H         2.227305        -2.269881        -1.325700
 H         0.947421        -1.336955        -2.399826
 H         2.481785         0.939063        -1.643081
 H         4.828253         0.354157         0.860617
 H         4.140380        -2.662309         0.736298
 H         5.291931        -1.801588         1.961763
 H         3.103640        -0.341028         2.552019
