19
Iteration:  3610
 C         0.407689         0.371260         0.120308
 C         1.522243        -0.614110        -0.169980
 C         1.546595        -1.161755        -1.655375
 C         2.528479        -0.092408        -1.165631
 O         3.872907        -0.516318        -0.941983
 C         4.123488        -0.375954         0.588229
 C         4.517592        -1.630166         1.369228
 C         3.124461        -0.921631         1.464508
 O         1.964419        -1.474498         0.945432
 H         0.137461         0.800964        -0.869710
 H        -0.567216        -0.023287         0.394503
 H         0.806119         1.091837         0.867107
 H         1.898439        -2.219020        -1.565661
 H         0.691269        -0.944285        -2.193214
 H         2.471311         0.866091        -1.642227
 H         4.684446         0.630094         0.588691
 H         4.573891        -2.631377         0.846158
 H         5.196910        -1.602309         2.207279
 H         2.901292        -0.449985         2.417007
