19
Iteration:  2264
 C         0.333747         0.265010         0.338663
 C         1.478560        -0.591573        -0.264814
 C         1.616826        -1.167456        -1.603164
 C         2.545678        -0.126414        -1.189955
 O         3.910300        -0.608114        -0.846072
 C         4.227574        -0.479926         0.455508
 C         4.338413        -1.513653         1.443649
 C         3.099192        -0.700085         1.441955
 O         2.034209        -1.501133         0.732530
 H         0.762770         0.834995         1.191019
 H        -0.096784         0.925660        -0.401588
 H        -0.496428        -0.361629         0.834789
 H         2.081342        -2.145482        -1.728260
 H         0.919020        -0.927967        -2.423279
 H         2.649355         0.870400        -1.537857
 H         4.733194         0.579692         0.709836
 H         4.181369        -2.489165         1.056801
 H         5.001258        -1.338902         2.252993
 H         2.913207         0.132284         2.111782
