19
Iteration:  3139charge 0 multiplicity 1
 C         0.256453         0.228011         0.222878
 C         1.522646        -0.575770        -0.238609
 C         1.666494        -1.274491        -1.534914
 C         2.502656        -0.092486        -1.228025
 O         3.857020        -0.538904        -0.933986
 C         4.240038        -0.459621         0.420267
 C         4.384569        -1.627822         1.321253
 C         3.165318        -0.793132         1.506912
 O         2.004106        -1.296735         0.943830
 H         0.394559         0.362835         1.273122
 H         0.267163         1.355267        -0.065872
 H        -0.565907        -0.387513        -0.140218
 H         2.328940        -2.160335        -1.561674
 H         0.854610        -1.197836        -2.155186
 H         2.582792         0.919285        -1.625982
 H         4.888247         0.391966         0.751358
 H         4.015388        -2.604767         0.932040
 H         4.984139        -1.426988         2.187104
 H         3.051942        -0.164118         2.325181
