19
Iteration:  1993charge 0 multiplicity 1
 C         0.501199         0.287895         0.316069
 C         1.513211        -0.576027        -0.247346
 C         1.512793        -1.267529        -1.608605
 C         2.534695        -0.193793        -1.229768
 O         3.961034        -0.591226        -0.823037
 C         4.131604        -0.280569         0.553005
 C         4.341874        -1.555604         1.375168
 C         3.044208        -0.782041         1.435567
 O         2.039043        -1.450952         0.736891
 H         0.800242         0.751839         1.196476
 H         0.128180         1.059149        -0.336376
 H        -0.416576        -0.395134         0.632032
 H         1.750504        -2.341421        -1.597353
 H         0.812374        -0.810536        -2.351915
 H         2.617898         0.791388        -1.668493
 H         4.550378         0.597125         0.875799
 H         4.337887        -2.434752         0.752680
 H         5.086804        -1.520687         2.127192
 H         2.818343        -0.043311         2.332023
