19
Iteration:  3442charge 0 multiplicity 1
 C         0.282803         0.309861         0.131792
 C         1.439173        -0.528635        -0.198726
 C         1.639575        -1.342280        -1.510148
 C         2.534168        -0.107122        -1.052828
 O         3.928878        -0.442424        -0.855639
 C         4.317715        -0.458069         0.447610
 C         4.456607        -1.665615         1.242703
 C         3.106092        -0.798400         1.469003
 O         1.911403        -1.376079         0.873849
 H         0.039976         1.102884        -0.718449
 H        -0.643234        -0.317965         0.096961
 H         0.444954         0.998400         1.055743
 H         2.068417        -2.370512        -1.427660
 H         0.952086        -1.126534        -2.281740
 H         2.501248         0.876991        -1.572653
 H         4.873385         0.412524         0.788694
 H         4.376016        -2.656401         0.707315
 H         5.233908        -1.797627         2.014441
 H         2.833693        -0.366170         2.413697
