19
Iteration:  3263charge 0 multiplicity 1
 C         0.328294         0.325414         0.314947
 C         1.551466        -0.584951        -0.237339
 C         1.468656        -1.183068        -1.553449
 C         2.542930        -0.235978        -1.270448
 O         3.916832        -0.584813        -0.848345
 C         4.206563        -0.345235         0.527565
 C         4.413331        -1.530768         1.404323
 C         3.106633        -0.801159         1.521145
 O         2.085477        -1.463632         0.683503
 H         0.669170         1.357529         0.138546
 H        -0.738914         0.087390        -0.203461
 H         0.186407         0.167439         1.437806
 H         1.640023        -2.303848        -1.564050
 H         0.706071        -0.739524        -2.261877
 H         2.512210         0.681547        -1.870762
 H         4.819094         0.419449         0.833078
 H         4.382907        -2.405527         0.789718
 H         5.123898        -1.475894         2.196512
 H         2.693475        -0.177489         2.373325
