19
Iteration:  3328
 C         0.371752         0.273959         0.111586
 C         1.524539        -0.600313        -0.151877
 C         1.537328        -1.119038        -1.635233
 C         2.550707        -0.129827        -1.130142
 O         3.859871        -0.656505        -0.850712
 C         4.178518        -0.313796         0.507685
 C         4.452810        -1.589261         1.360802
 C         3.143570        -0.862490         1.459767
 O         2.002483        -1.418748         0.879533
 H        -0.043405         0.876745        -0.712402
 H        -0.589951        -0.286249         0.609696
 H         0.786002         0.834069         0.986322
 H         1.977625        -2.112529        -2.053931
 H         0.653098        -0.715311        -2.114367
 H         2.469393         0.957974        -1.322123
 H         4.696177         0.583229         0.396034
 H         4.507959        -2.460090         0.701681
 H         5.122508        -1.624985         2.159440
 H         2.952172        -0.194738         2.338800
