19
Iteration:    60
 C         0.395016         0.332339         0.284483
 C         1.442956        -0.687710        -0.289094
 C         1.475186        -1.236552        -1.685245
 C         2.545339        -0.235315        -1.251989
 O         3.803936        -0.690986        -0.802979
 C         4.221181        -0.308086         0.495714
 C         4.473192        -1.408011         1.392079
 C         3.127159        -0.804163         1.577841
 O         2.090138        -1.393956         0.786317
 H         0.645952         0.417319         1.414928
 H         0.622359         1.318754        -0.105597
 H        -0.725646         0.172226         0.160732
 H         1.905618        -2.251812        -1.909313
 H         0.750966        -0.914467        -2.432646
 H         2.502519         0.820483        -1.664280
 H         4.894085         0.625868         0.415212
 H         4.536917        -2.501420         1.040912
 H         5.132435        -1.250411         2.272450
 H         2.706550        -0.344435         2.504424
