19
Iteration:  4973charge 0 multiplicity 1
 C         0.281243         0.295210         0.103337
 C         1.483656        -0.470665        -0.202767
 C         1.624176        -1.222138        -1.494377
 C         2.569954        -0.103958        -1.151226
 O         3.850370        -0.543737        -0.861405
 C         4.199437        -0.395458         0.487996
 C         4.350746        -1.782613         1.325292
 C         3.229673        -0.799501         1.440206
 O         2.037842        -1.343777         0.909476
 H         0.168356         1.027520        -0.770834
 H        -0.604737        -0.418820         0.230866
 H         0.552172         0.907997         1.002927
 H         2.058391        -2.287675        -1.399032
 H         0.901245        -1.203230        -2.252486
 H         2.528050         0.828122        -1.795790
 H         4.786233         0.411839         0.705985
 H         4.077680        -2.664072         0.704577
 H         5.032147        -1.887576         2.179304
 H         2.863936        -0.187393         2.246410
