19
Iteration:  1878charge 0 multiplicity 1
 C         0.321403         0.318527         0.232216
 C         1.424630        -0.547345        -0.219469
 C         1.715917        -1.323818        -1.556390
 C         2.557313        -0.184394        -1.202172
 O         3.927017        -0.385231        -0.895257
 C         4.300616        -0.363328         0.524961
 C         4.330968        -1.681357         1.253858
 C         3.125074        -0.899119         1.417119
 O         1.918222        -1.343504         0.938242
 H         0.550477         1.214006         1.071259
 H        -0.192549         0.744664        -0.776565
 H        -0.365461        -0.386737         0.654247
 H         2.292810        -2.188979        -1.349690
 H         1.051090        -1.597744        -2.345992
 H         2.228409         0.755135        -1.750378
 H         4.891733         0.597590         0.951995
 H         4.155549        -2.631550         0.707783
 H         4.930292        -1.745911         2.154713
 H         3.061920        -0.350489         2.310473
