19
Iteration:   556
 C         0.446789         0.290008         0.334999
 C         1.443342        -0.632932        -0.250320
 C         1.537171        -1.170210        -1.647885
 C         2.521638        -0.189547        -1.240086
 O         3.870163        -0.605995        -0.837268
 C         4.170376        -0.386147         0.515157
 C         4.432643        -1.435567         1.451181
 C         3.085184        -0.824549         1.493332
 O         2.059427        -1.508674         0.721483
 H         1.041619         1.126094         0.621536
 H        -0.196648         0.916309        -0.511274
 H        -0.189867        -0.157822         1.117616
 H         1.872127        -2.188750        -1.916754
 H         0.744743        -0.794458        -2.308830
 H         2.601249         0.795155        -1.747698
 H         4.491152         0.615623         0.663106
 H         4.547044        -2.489283         1.147481
 H         5.077159        -1.264404         2.331241
 H         2.930460         0.022760         2.293868
