19
Iteration:  3910
 C         0.422422         0.289028         0.131866
 C         1.461542        -0.677199        -0.212371
 C         1.553936        -1.185367        -1.571669
 C         2.570984        -0.198636        -1.144877
 O         3.886354        -0.357364        -0.862980
 C         4.254322        -0.425203         0.506960
 C         4.384507        -1.722106         1.310694
 C         3.190726        -0.828734         1.456975
 O         1.934428        -1.364060         0.919197
 H        -0.176189         0.584502        -0.723307
 H        -0.420534        -0.143777         0.656872
 H         0.614708         1.257498         0.547501
 H         1.934120        -2.298214        -1.542838
 H         0.702464        -1.007401        -2.369603
 H         2.356225         0.811933        -1.648013
 H         4.903189         0.437914         0.897906
 H         4.180636        -2.614017         0.831466
 H         5.093911        -1.690137         2.116950
 H         3.058999        -0.241424         2.323701
