19
Iteration:  2224charge 0 multiplicity 1
 C         0.504386         0.328840         0.302977
 C         1.512734        -0.625958        -0.245835
 C         1.492584        -1.110306        -1.710248
 C         2.617534        -0.207115        -1.238356
 O         3.886101        -0.602075        -0.817803
 C         4.095598        -0.363969         0.516340
 C         4.411440        -1.432691         1.476822
 C         3.004608        -0.849188         1.460538
 O         2.073846        -1.545409         0.758429
 H         0.999869         1.134979         0.788326
 H        -0.235837         0.816141        -0.393409
 H        -0.031478        -0.185604         1.150741
 H         1.754804        -2.136948        -1.908783
 H         0.628644        -0.771491        -2.320752
 H         2.555992         0.786768        -1.817013
 H         4.491872         0.551855         0.703766
 H         4.424150        -2.523442         1.099588
 H         5.278658        -1.324891         2.221628
 H         2.549752        -0.300529         2.392560
