19
Iteration:  4669charge 0 multiplicity 1
 C         0.435352         0.432139         0.169166
 C         1.453393        -0.538058        -0.193868
 C         1.599721        -1.390685        -1.494804
 C         2.582568        -0.277565        -1.243173
 O         3.851233        -0.401458        -0.797288
 C         4.174875        -0.328029         0.599100
 C         4.386186        -1.684314         1.130696
 C         3.115642        -0.898725         1.493626
 O         1.998838        -1.366639         0.867529
 H         0.101975         1.024102        -0.610101
 H        -0.439590         0.062104         0.594859
 H         0.685850         1.262496         0.878448
 H         2.102598        -2.401406        -1.468529
 H         0.975711        -1.276316        -2.308296
 H         2.342898         0.597515        -1.905904
 H         4.828267         0.598970         0.977150
 H         4.329192        -2.557085         0.443260
 H         5.087347        -1.685254         1.972415
 H         2.849197        -0.537889         2.495338
