19
Iteration:  1507
 C         0.260886         0.332384         0.156099
 C         1.453324        -0.578165        -0.172397
 C         1.648778        -1.328749        -1.453651
 C         2.601739        -0.153601        -1.202945
 O         4.015657        -0.350185        -0.868934
 C         4.254349        -0.357595         0.481150
 C         4.346800        -1.705172         1.194577
 C         3.128516        -0.889557         1.430762
 O         1.883524        -1.374571         0.965650
 H         0.376592         0.999588         0.968959
 H        -0.122578         0.860527        -0.816888
 H        -0.580089        -0.317225         0.296914
 H         2.041268        -2.355184        -1.329679
 H         0.914637        -1.397851        -2.270404
 H         2.377839         0.743173        -1.783868
 H         4.955327         0.504229         0.878943
 H         4.571347        -2.576486         0.596634
 H         4.993065        -1.800189         2.078111
 H         3.192144        -0.318293         2.353162
