19
Iteration:   352
 C         0.380568         0.338745         0.202473
 C         1.480393        -0.619785        -0.161588
 C         1.505536        -1.215494        -1.605603
 C         2.574384        -0.147370        -1.182770
 O         3.838583        -0.649744        -0.819810
 C         4.140814        -0.332726         0.491384
 C         4.436894        -1.495722         1.324823
 C         3.092882        -0.827539         1.463987
 O         2.121263        -1.487940         0.836495
 H         0.864591         1.279207         0.592567
 H        -0.143307         0.515098        -0.658881
 H        -0.401455         0.055468         1.001250
 H         1.836389        -2.277445        -1.754262
 H         0.880036        -0.849111        -2.456345
 H         2.682263         0.819268        -1.744641
 H         4.555493         0.738024         0.792269
 H         4.579711        -2.453135         0.758382
 H         5.026397        -1.182062         2.208575
 H         2.864561        -0.283301         2.322329
