19
Iteration:  4493
 C         0.499566         0.425511         0.127109
 C         1.391860        -0.689551        -0.178962
 C         1.571920        -1.227106        -1.561725
 C         2.520822        -0.204461        -1.116417
 O         3.932488        -0.474527        -0.861388
 C         4.141916        -0.280713         0.540609
 C         4.457529        -1.578447         1.232966
 C         3.130871        -0.959523         1.450250
 O         1.916073        -1.458196         0.958637
 H         0.136039         0.890226        -0.790280
 H        -0.425147         0.083988         0.533176
 H         0.909729         1.218814         0.830927
 H         1.760994        -2.275029        -1.793496
 H         0.868823        -1.059536        -2.432663
 H         2.496441         0.737104        -1.773593
 H         4.775233         0.648233         0.702930
 H         4.616155        -2.430231         0.586369
 H         5.203214        -1.542614         1.988700
 H         2.942158        -0.607559         2.393582
