19
Iteration:  1869charge 0 multiplicity 1
 C         0.323513         0.302267         0.157594
 C         1.485938        -0.569123        -0.197242
 C         1.714446        -1.381717        -1.478896
 C         2.522831        -0.177675        -1.193630
 O         3.978606        -0.313517        -0.899642
 C         4.215997        -0.399791         0.512418
 C         4.375794        -1.738599         1.217406
 C         3.142475        -0.847982         1.455293
 O         1.877249        -1.330656         0.914996
 H         0.544111         1.190582         0.877352
 H        -0.194717         0.781060        -0.725322
 H        -0.423866        -0.282488         0.743584
 H         2.093031        -2.313430        -1.151654
 H         1.082488        -1.233293        -2.347857
 H         2.233452         0.847395        -1.588411
 H         4.792658         0.501000         0.842418
 H         4.141870        -2.719425         0.692480
 H         5.139305        -1.854628         2.023091
 H         2.966993        -0.278717         2.428817
