19
Iteration:   766charge 0 multiplicity 1
 C         0.339270         0.352485         0.210543
 C         1.468298        -0.610169        -0.222136
 C         1.614961        -1.407042        -1.574374
 C         2.520889        -0.136281        -1.196577
 O         3.909633        -0.392737        -0.809286
 C         4.176255        -0.395658         0.526528
 C         4.471444        -1.656375         1.279330
 C         3.113565        -0.853326         1.487583
 O         1.974432        -1.349087         0.862142
 H         0.667837         1.246973         0.709433
 H        -0.258053         0.646687        -0.616016
 H        -0.311063        -0.364867         0.846141
 H         2.084210        -2.382423        -1.886965
 H         0.847279        -1.088536        -2.351792
 H         2.544161         0.797632        -1.839743
 H         4.779378         0.354902         0.771608
 H         4.390789        -2.602536         0.668895
 H         5.239991        -1.401787         2.086703
 H         2.852337        -0.284053         2.358683
