19
Iteration:  4627
 C         0.318704         0.447622         0.125503
 C         1.461801        -0.599095        -0.105619
 C         1.583706        -1.225511        -1.608234
 C         2.546864        -0.201289        -1.123597
 O         3.929530        -0.572400        -0.852336
 C         4.154755        -0.360523         0.464828
 C         4.533409        -1.589783         1.285654
 C         3.145520        -0.890967         1.428754
 O         1.885137        -1.449173         0.910905
 H         0.166856         0.827049        -0.873190
 H        -0.496355        -0.043269         0.654275
 H         0.725968         1.165456         0.949952
 H         2.025764        -2.247243        -1.740794
 H         0.913092        -0.907153        -2.304621
 H         2.391093         0.831702        -1.510758
 H         4.855585         0.562958         0.646675
 H         4.718030        -2.544329         0.730852
 H         5.138385        -1.314805         2.171376
 H         3.022467        -0.385594         2.452137
