19
Iteration:  2631
 C         0.292638         0.200384         0.151335
 C         1.535510        -0.528945        -0.149043
 C         1.648521        -1.356669        -1.450846
 C         2.615161        -0.100466        -1.222803
 O         3.854121        -0.462353        -0.977850
 C         4.191222        -0.439786         0.474933
 C         4.309104        -1.687630         1.312428
 C         3.182300        -0.671581         1.476583
 O         1.995986        -1.335824         0.941729
 H        -0.591269        -0.579726         0.212733
 H         0.331506         0.806629         1.098043
 H         0.143529         1.093108        -0.510421
 H         2.137979        -2.398047        -1.254212
 H         0.774766        -1.295663        -2.261166
 H         2.424187         0.848425        -1.877314
 H         4.916495         0.316135         0.474357
 H         4.141376        -2.712087         0.861308
 H         5.211067        -1.719391         2.069809
 H         3.054846         0.007244         2.372759
