19
Iteration:  4186
 C         0.279468         0.227039         0.237174
 C         1.518938        -0.546254        -0.232058
 C         1.575608        -1.242066        -1.542761
 C         2.616309        -0.037384        -1.164558
 O         3.918604        -0.511080        -0.935679
 C         4.214183        -0.456971         0.514517
 C         4.339072        -1.697202         1.357305
 C         3.147378        -0.839243         1.420865
 O         1.982464        -1.302014         0.870235
 H         0.052072         1.083109        -0.462523
 H        -0.545105        -0.468920         0.114396
 H         0.202201         0.637170         1.258504
 H         2.206879        -2.157765        -1.466990
 H         0.801657        -1.031402        -2.291517
 H         2.581315         0.894839        -1.650718
 H         4.894589         0.291019         0.600622
 H         4.327789        -2.776406         1.165433
 H         5.160830        -1.610885         2.158753
 H         3.048285        -0.169324         2.250470
