19
Iteration:  3753
 C         0.420246         0.424634         0.250253
 C         1.436889        -0.629102        -0.292760
 C         1.549832        -1.200168        -1.592470
 C         2.594032        -0.191830        -1.222717
 O         3.934236        -0.561759        -0.825230
 C         4.173652        -0.288998         0.560922
 C         4.505097        -1.566556         1.310020
 C         3.094502        -1.008037         1.458819
 O         1.857472        -1.398225         0.833604
 H        -0.312991         0.585925        -0.532590
 H        -0.137099        -0.080391         1.133196
 H         1.083777         1.106403         0.770216
 H         1.936602        -2.142425        -1.630802
 H         0.899300        -0.904777        -2.422634
 H         2.435195         0.674212        -1.807105
 H         4.572279         0.760610         0.836297
 H         5.066410        -2.312731         0.693559
 H         5.035644        -1.647603         2.363013
 H         2.894785        -0.589346         2.512579
