19
Iteration:  3327
 C         0.370137         0.274296         0.116621
 C         1.518027        -0.604679        -0.154112
 C         1.537279        -1.117304        -1.641222
 C         2.554026        -0.129242        -1.127524
 O         3.869601        -0.658799        -0.855018
 C         4.173161        -0.316165         0.508921
 C         4.448034        -1.587515         1.362605
 C         3.149595        -0.852109         1.458672
 O         2.001584        -1.427102         0.884619
 H        -0.053909         0.917952        -0.662904
 H        -0.581944        -0.261017         0.583975
 H         0.775994         0.817005         0.989329
 H         1.994360        -2.115696        -2.056803
 H         0.629801        -0.723857        -2.140129
 H         2.450299         0.976591        -1.318628
 H         4.721999         0.612457         0.357457
 H         4.492584        -2.454992         0.719727
 H         5.113634        -1.637763         2.163642
 H         2.955411        -0.199468         2.324757
