19
Iteration:  1350
 C         0.395613         0.282143         0.228351
 C         1.473594        -0.632423        -0.219321
 C         1.568931        -1.265058        -1.656285
 C         2.532519        -0.126353        -1.171653
 O         3.846654        -0.515538        -0.842455
 C         4.161867        -0.374758         0.477946
 C         4.530496        -1.583204         1.344609
 C         3.197209        -0.865013         1.469705
 O         1.913059        -1.374237         0.880617
 H         0.723276         0.992046         1.118931
 H         0.258559         0.872853        -0.671141
 H        -0.520672        -0.324017         0.316449
 H         2.030170        -2.252764        -1.602998
 H         0.883501        -0.896082        -2.401671
 H         2.392783         0.869511        -1.607838
 H         4.673624         0.654827         0.695236
 H         4.428887        -2.594978         0.982552
 H         5.053662        -1.374121         2.271596
 H         3.033454        -0.365313         2.326468
