19
Iteration:   931charge 0 multiplicity 1
 C         0.336391         0.276172         0.114090
 C         1.462597        -0.694729        -0.200944
 C         1.641336        -1.326166        -1.506137
 C         2.564296        -0.087471        -1.101780
 O         3.930803        -0.410297        -0.927072
 C         4.172704        -0.299250         0.507548
 C         4.420730        -1.675802         1.220853
 C         3.119963        -0.855078         1.509931
 O         1.942096        -1.357144         0.947724
 H         0.898441         1.159182         0.247538
 H        -0.197023         0.501475        -0.740761
 H        -0.343126         0.016547         0.943916
 H         2.199592        -2.284703        -1.478420
 H         0.791442        -1.266671        -2.221449
 H         2.561946         0.832701        -1.738116
 H         4.675080         0.565197         0.816029
 H         4.063505        -2.556283         0.643443
 H         5.223477        -1.879547         1.971846
 H         2.981874        -0.284084         2.424885
