19
Iteration:  1511charge 0 multiplicity 1
 C         0.254099         0.316762         0.146785
 C         1.481612        -0.594315        -0.161301
 C         1.663711        -1.339690        -1.458347
 C         2.637659        -0.146994        -1.196788
 O         3.978582        -0.352264        -0.906188
 C         4.245977        -0.326505         0.516457
 C         4.316760        -1.743969         1.215647
 C         3.131830        -0.901786         1.403062
 O         1.907665        -1.348128         0.970781
 H         0.431386         1.058825         0.962148
 H        -0.095874         0.856827        -0.745396
 H        -0.694688        -0.382020         0.284614
 H         2.126752        -2.294258        -1.253776
 H         0.858023        -1.308321        -2.183816
 H         2.395625         0.816084        -1.730138
 H         4.841720         0.449106         0.771205
 H         4.415867        -2.560418         0.491060
 H         4.988407        -1.742771         2.066667
 H         3.213687        -0.269699         2.438854
