19
Iteration:  2800
 C         0.373046         0.311938         0.265318
 C         1.464095        -0.626576        -0.236486
 C         1.551583        -1.244231        -1.629552
 C         2.547401        -0.200761        -1.157385
 O         3.849933        -0.647262        -0.857850
 C         4.199444        -0.330930         0.431981
 C         4.471860        -1.537897         1.454849
 C         3.180801        -0.737668         1.395147
 O         1.980137        -1.375378         0.838324
 H         0.150423        -0.269034         1.162777
 H         0.742017         1.383007         0.159564
 H        -0.639141         0.285117        -0.277856
 H         1.676001        -2.294651        -1.725817
 H         0.846732        -0.776175        -2.242324
 H         2.412967         0.727562        -1.719307
 H         4.938837         0.536871         0.753382
 H         4.421162        -2.584718         1.060026
 H         5.282978        -1.319437         2.203169
 H         2.866391        -0.363420         2.367684
