19
Iteration:   217
 C         0.284499         0.270358         0.046485
 C         1.484909        -0.582804        -0.147599
 C         1.634775        -1.335324        -1.436621
 C         2.499278        -0.120475        -1.136764
 O         3.860985        -0.541077        -0.863448
 C         4.224824        -0.299079         0.521481
 C         4.437340        -1.675040         1.209037
 C         3.162472        -0.836252         1.445120
 O         1.993086        -1.299264         0.960777
 H         0.515118         1.047482         0.663070
 H         0.120979         0.730891        -1.012291
 H        -0.546668        -0.233340         0.389346
 H         2.135672        -2.269977        -1.703786
 H         0.761760        -1.059878        -1.988634
 H         2.620862         0.790211        -1.702975
 H         4.771818         0.567066         0.679801
 H         4.360498        -2.409135         0.419024
 H         5.158798        -1.931711         1.947326
 H         3.135115        -0.268106         2.466400
