19
Iteration:   313
 C         0.422602         0.257212         0.326751
 C         1.514529        -0.626180        -0.273981
 C         1.499979        -1.155745        -1.603514
 C         2.571378        -0.161839        -1.138351
 O         3.888330        -0.713295        -0.850635
 C         4.172516        -0.316591         0.419166
 C         4.463888        -1.429042         1.428232
 C         3.067005        -0.825744         1.360884
 O         1.982533        -1.460901         0.832883
 H         0.793587         0.789153         1.224175
 H         0.293269         1.066110        -0.508070
 H        -0.508051        -0.224670         0.535341
 H         1.844955        -2.172923        -1.733882
 H         0.829563        -0.849447        -2.379622
 H         2.454405         0.791554        -1.608906
 H         4.575073         0.636916         0.469012
 H         4.819158        -2.431557         1.182001
 H         4.955507        -0.999928         2.278235
 H         2.902981        -0.163642         2.310665
