19
Iteration:  2069
 C         0.208022         0.243369        -0.001324
 C         1.486479        -0.635092        -0.198447
 C         1.677973        -1.190882        -1.571948
 C         2.620479        -0.168863        -1.091809
 O         3.902256        -0.489658        -0.829569
 C         4.200459        -0.340277         0.545229
 C         4.407220        -1.755400         1.139211
 C         3.174552        -0.866198         1.491353
 O         1.953462        -1.234101         1.058931
 H         0.456582         1.133881         0.464797
 H        -0.320416         0.536164        -0.850648
 H        -0.603635        -0.326730         0.542095
 H         2.232109        -2.120481        -1.605414
 H         0.853865        -1.037168        -2.314422
 H         2.580818         0.865614        -1.422070
 H         4.699136         0.463223         0.776792
 H         4.026624        -2.368357         0.359418
 H         5.153382        -2.035171         1.832922
 H         3.368259        -0.392613         2.528682
