19
Iteration:  3917
 C         0.453328         0.318661         0.106083
 C         1.549736        -0.643118        -0.215747
 C         1.551827        -1.221886        -1.537562
 C         2.558106        -0.224392        -1.182864
 O         3.861418        -0.340235        -0.811213
 C         4.201907        -0.419673         0.512193
 C         4.334626        -1.704949         1.259768
 C         3.152728        -0.823566         1.443018
 O         1.961989        -1.389724         0.930238
 H        -0.204855         0.477372        -0.776569
 H        -0.344069        -0.178009         0.910649
 H         0.808324         1.219960         0.687092
 H         1.964346        -2.207634        -1.532525
 H         0.907645        -1.051778        -2.287977
 H         2.442593         0.753935        -1.584347
 H         4.907646         0.435086         0.746662
 H         4.112361        -2.621188         0.684339
 H         5.110680        -1.704205         1.982321
 H         2.932301        -0.240275         2.368529
