19
Iteration:  1202
 C         0.236259         0.269674         0.132461
 C         1.462730        -0.614768        -0.170829
 C         1.595316        -1.189750        -1.597646
 C         2.512345        -0.111801        -1.229471
 O         3.862512        -0.554053        -0.891579
 C         4.262792        -0.361170         0.544622
 C         4.488859        -1.639109         1.325150
 C         3.230784        -0.887847         1.500306
 O         1.977291        -1.284934         0.904006
 H         0.346041         0.738512         1.061318
 H        -0.031163         0.803169        -0.822480
 H        -0.688499        -0.530678         0.070467
 H         2.129123        -2.111674        -1.579261
 H         0.675690        -1.208978        -2.159309
 H         2.501894         0.896039        -1.503170
 H         4.793910         0.503027         0.672776
 H         4.688611        -2.646646         0.958415
 H         5.063602        -1.421234         2.220950
 H         3.054489        -0.602005         2.544144
