19
Iteration:  1264charge 0 multiplicity 1
 C         0.306748         0.153807         0.143143
 C         1.487170        -0.592010        -0.269603
 C         1.724086        -1.303699        -1.553196
 C         2.513943        -0.097322        -1.189519
 O         3.850730        -0.373931        -0.870056
 C         4.240420        -0.464725         0.521942
 C         4.404826        -1.775029         1.239499
 C         3.172236        -0.812677         1.516184
 O         1.916403        -1.167598         0.985713
 H         0.417914         0.931896         0.900761
 H        -0.190286         0.715313        -0.667282
 H        -0.311855        -0.497186         0.572926
 H         2.232187        -2.258994        -1.502628
 H         0.918441        -1.262507        -2.316993
 H         2.291018         0.720050        -1.840181
 H         4.901115         0.449570         0.859992
 H         4.290060        -2.662153         0.606433
 H         5.241711        -1.861111         1.930675
 H         3.177853        -0.324331         2.427166
