19
Iteration:  4220
 C         0.252282         0.215107         0.177192
 C         1.497584        -0.675647        -0.221026
 C         1.568342        -1.107014        -1.672393
 C         2.604097        -0.066407        -1.063073
 O         3.850017        -0.643844        -0.848682
 C         4.236578        -0.402558         0.477298
 C         4.388431        -1.686998         1.337207
 C         3.185118        -0.736714         1.434630
 O         2.046890        -1.330125         0.930484
 H         0.123388         0.840818        -0.720130
 H        -0.586874        -0.409341         0.175877
 H         0.350002         0.823464         1.094263
 H         1.991355        -2.014778        -2.022838
 H         0.682260        -0.760900        -2.303594
 H         2.684374         0.964940        -1.369440
 H         4.948066         0.355350         0.801530
 H         3.979457        -2.520019         0.743122
 H         5.143950        -1.597930         2.099103
 H         2.986357        -0.007701         2.278890
