19
Iteration:   233
 C         0.288425         0.338070         0.069940
 C         1.520584        -0.623449        -0.133641
 C         1.615652        -1.248159        -1.513148
 C         2.579251        -0.202197        -1.123225
 O         3.908853        -0.550708        -0.871051
 C         4.181736        -0.362220         0.430827
 C         4.440940        -1.576549         1.160767
 C         3.189146        -0.794367         1.505830
 O         1.911999        -1.374575         0.981932
 H         0.385171         0.943313         1.106790
 H         0.013396         0.952640        -0.726420
 H        -0.644245        -0.391690         0.118746
 H         1.971898        -2.228049        -1.185758
 H         1.051995        -1.333496        -2.476307
 H         2.318835         0.855773        -1.456192
 H         4.858219         0.555138         0.735609
 H         4.207069        -2.550153         0.707483
 H         5.245339        -1.478685         1.937337
 H         3.109290        -0.320714         2.417649
