19
Iteration:  1252charge 0 multiplicity 1
 C         0.190632         0.181712         0.088814
 C         1.541931        -0.565557        -0.172686
 C         1.686747        -1.361390        -1.540645
 C         2.549854        -0.053114        -1.131809
 O         3.881080        -0.419435        -0.855947
 C         4.248143        -0.399432         0.454948
 C         4.288182        -1.723514         1.205289
 C         3.229584        -0.817901         1.483735
 O         1.982692        -1.248749         1.002475
 H         0.564356         0.826039         0.921462
 H        -0.272695         0.609343        -0.767721
 H        -0.494253        -0.462675         0.397205
 H         2.272004        -2.281761        -1.646573
 H         0.940220        -1.114083        -2.333620
 H         2.566815         0.963829        -1.621738
 H         5.108914         0.390730         0.640250
 H         4.062698        -2.642201         0.651587
 H         4.947271        -1.798235         2.064776
 H         3.101529        -0.346725         2.423118
