19
Iteration:  2572charge 0 multiplicity 1
 C         0.277461         0.332106         0.109030
 C         1.524612        -0.564216        -0.159163
 C         1.540997        -1.227978        -1.570236
 C         2.574706        -0.168325        -1.139946
 O         3.881062        -0.685354        -0.880003
 C         4.154923        -0.316999         0.512761
 C         4.552779        -1.549289         1.286112
 C         3.152314        -0.854396         1.543917
 O         1.945081        -1.369535         0.881627
 H        -0.264313         0.070491         0.962149
 H         0.677625         1.355965         0.173482
 H        -0.384812         0.057059        -0.700089
 H         1.902526        -2.198459        -1.742282
 H         0.764314        -1.026720        -2.236055
 H         2.589570         0.792686        -1.599746
 H         4.585282         0.707560         0.731009
 H         4.725998        -2.346311         0.591118
 H         5.250537        -1.371490         2.017278
 H         3.038360        -0.406657         2.510396
