19
Iteration:  1081
 C         0.346119         0.274927         0.242412
 C         1.546653        -0.578823        -0.226878
 C         1.579145        -1.143279        -1.553868
 C         2.618296        -0.196376        -1.151708
 O         3.869539        -0.634347        -0.840966
 C         4.198780        -0.288539         0.441492
 C         4.387257        -1.475987         1.293988
 C         3.067764        -0.885037         1.505601
 O         1.971056        -1.441701         0.837115
 H         0.612588         0.979508         0.927730
 H        -0.049994         0.721031        -0.693013
 H        -0.369804        -0.429622         0.783375
 H         1.902514        -2.209499        -1.563680
 H         1.093119        -0.869832        -2.495865
 H         2.652322         0.706485        -1.689324
 H         4.755500         0.535420         0.617610
 H         4.524039        -2.465781         0.828499
 H         5.116674        -1.403446         2.127323
 H         2.821252        -0.261364         2.326082
