19
Iteration:  1788
 C         0.225850         0.188679         0.092566
 C         1.523140        -0.521941        -0.215846
 C         1.732270        -1.261286        -1.445476
 C         2.579969        -0.104307        -1.162910
 O         3.965411        -0.434184        -0.962376
 C         4.214989        -0.374232         0.507268
 C         4.380491        -1.779514         1.173048
 C         3.141736        -0.935091         1.522147
 O         1.851881        -1.192860         1.069626
 H         0.294293         0.956355         0.959900
 H        -0.163566         0.713222        -0.836321
 H        -0.490243        -0.645459         0.184309
 H         2.219085        -2.247526        -1.282473
 H         0.960845        -1.258279        -2.264819
 H         2.567025         0.777572        -1.752972
 H         4.768995         0.579965         0.761013
 H         4.253321        -2.435421         0.320626
 H         5.189739        -2.000402         1.844147
 H         3.179997        -0.370890         2.427953
