19
Iteration:  4996
 C         0.348816         0.435187         0.075785
 C         1.474218        -0.548611        -0.181238
 C         1.592252        -1.279852        -1.548607
 C         2.574420        -0.189390        -1.176473
 O         3.901811        -0.484498        -0.888369
 C         4.207888        -0.465661         0.541429
 C         4.507159        -1.619764         1.240104
 C         3.153472        -0.931607         1.508780
 O         1.860784        -1.373253         0.971373
 H         0.116398         1.009676        -0.858316
 H        -0.614870        -0.038840         0.492676
 H         0.891003         1.147079         0.778415
 H         2.024815        -2.250662        -1.812614
 H         0.878699        -1.093937        -2.309830
 H         2.373989         0.850861        -1.536348
 H         4.700462         0.426806         0.789200
 H         4.570102        -2.539713         0.680082
 H         5.082082        -1.416031         2.117517
 H         2.912696        -0.604166         2.536756
