19
Iteration:  3703charge 0 multiplicity 1
 C         0.295043         0.309832         0.125065
 C         1.511360        -0.616851        -0.234828
 C         1.546595        -1.187864        -1.616426
 C         2.529102        -0.126376        -1.128436
 O         3.848601        -0.497101        -0.860498
 C         4.271234        -0.383799         0.546774
 C         4.377915        -1.734993         1.380788
 C         3.214392        -0.801676         1.448802
 O         2.040778        -1.363378         0.868445
 H         0.071776         0.753260        -0.840072
 H        -0.610490        -0.225461         0.371708
 H         0.693634         0.949056         0.926367
 H         1.996333        -2.217256        -1.868915
 H         0.548173        -0.958879        -2.149041
 H         2.433848         0.981648        -1.385793
 H         4.918024         0.426538         0.894669
 H         4.137878        -2.576574         0.798777
 H         5.035259        -1.968795         2.171967
 H         3.040008        -0.319949         2.410957
