19
Iteration:  2491charge 0 multiplicity 1
 C         0.464540         0.332785         0.309146
 C         1.551613        -0.562262        -0.224117
 C         1.535604        -1.233038        -1.554662
 C         2.575959        -0.219936        -1.236461
 O         3.855341        -0.658649        -0.914130
 C         4.152243        -0.322120         0.488700
 C         4.392678        -1.442367         1.423801
 C         3.026882        -0.831130         1.464326
 O         2.069212        -1.450609         0.724611
 H         0.450255         0.244837         1.458086
 H         0.252513         1.314439        -0.048729
 H        -0.526289        -0.047915         0.009038
 H         1.897281        -2.320562        -1.401663
 H         0.783537        -0.967951        -2.313362
 H         2.609284         0.844217        -1.495351
 H         4.774382         0.559065         0.857487
 H         4.345202        -2.510907         1.044946
 H         5.050506        -1.291838         2.316683
 H         2.619038        -0.172634         2.262522
