19
Iteration:  2162
 C         0.373932         0.318303         0.133542
 C         1.507827        -0.616716        -0.175470
 C         1.637048        -1.253271        -1.627950
 C         2.539283        -0.165821        -1.180614
 O         3.874511        -0.456443        -0.870397
 C         4.167053        -0.384431         0.519465
 C         4.484705        -1.632396         1.320444
 C         3.089055        -0.899732         1.517374
 O         1.920834        -1.378887         0.914648
 H         0.683394         0.895560         1.086568
 H         0.180399         1.145177        -0.614842
 H        -0.490971        -0.283906         0.217842
 H         2.235301        -2.131273        -1.559512
 H         0.859155        -1.057245        -2.398299
 H         2.570186         0.834900        -1.645652
 H         4.634945         0.662817         0.813577
 H         4.269150        -2.460073         0.601580
 H         5.310014        -1.699687         2.058392
 H         2.870843        -0.361586         2.372818
