19
Iteration:   596charge 0 multiplicity 1
 C         0.417569         0.317923         0.315925
 C         1.504130        -0.620817        -0.238103
 C         1.529085        -1.161389        -1.575340
 C         2.631157        -0.196551        -1.235733
 O         3.883311        -0.651609        -0.835945
 C         4.111123        -0.283092         0.494806
 C         4.484572        -1.494626         1.408871
 C         3.010997        -0.847006         1.409132
 O         2.020533        -1.506054         0.785931
 H         0.971200         0.974040         1.058267
 H         0.012057         1.010763        -0.425538
 H        -0.422207        -0.058315         0.842998
 H         1.880323        -2.227106        -1.671812
 H         0.902306        -0.971886        -2.476688
 H         2.575742         0.777382        -1.703233
 H         4.343986         0.889021         0.701360
 H         4.605018        -2.397458         0.769911
 H         5.241826        -1.103486         2.098003
 H         2.603902        -0.384598         2.368410
