19
Iteration:  3945charge 0 multiplicity 1
 C         0.350470         0.459730         0.252472
 C         1.433287        -0.616838        -0.220610
 C         1.690431        -1.328461        -1.497447
 C         2.578434        -0.213769        -1.249019
 O         3.916261        -0.403716        -0.902196
 C         4.167192        -0.326453         0.586109
 C         4.355423        -1.670303         1.240222
 C         3.113090        -0.937050         1.504366
 O         1.962096        -1.378260         0.835656
 H        -0.093666         0.804044        -0.706661
 H        -0.286336         0.013201         0.960864
 H         0.936173         1.220708         0.779712
 H         2.238090        -2.210424        -1.132984
 H         0.930489        -1.483975        -2.444073
 H         2.428965         0.750076        -1.803564
 H         4.675180         0.569548         0.745404
 H         4.205649        -2.548918         0.489725
 H         5.181603        -1.912411         2.003888
 H         2.906235        -0.515045         2.496352
