19
Iteration:  1962charge 0 multiplicity 1
 C         0.419781         0.318300         0.338761
 C         1.487859        -0.558939        -0.249853
 C         1.590928        -1.126955        -1.710319
 C         2.534591        -0.128410        -1.192067
 O         3.842133        -0.744227        -0.867192
 C         4.163506        -0.353900         0.482745
 C         4.444856        -1.416462         1.471720
 C         3.068620        -0.802696         1.452200
 O         2.018264        -1.573467         0.771646
 H         0.614923         0.599255         1.333218
 H         0.208521         1.183692        -0.298976
 H        -0.511339        -0.342880         0.406617
 H         1.888397        -2.168771        -1.673590
 H         0.933891        -0.731270        -2.511624
 H         2.624527         0.921256        -1.437047
 H         4.696908         0.606611         0.609139
 H         4.688640        -2.434155         1.275100
 H         5.168626        -1.076313         2.150990
 H         2.834406        -0.088633         2.268195
