19
Iteration:   474charge 0 multiplicity 1
 C         0.215522         0.219766         0.070643
 C         1.463042        -0.583614        -0.235467
 C         1.654496        -1.343121        -1.489053
 C         2.553906        -0.101010        -1.166498
 O         3.842314        -0.515984        -0.911613
 C         4.238050        -0.323618         0.521521
 C         4.506795        -1.706275         1.295995
 C         3.227143        -0.893109         1.473494
 O         1.922357        -1.194567         0.986785
 H         0.246857         0.700379         1.110476
 H         0.205570         0.957560        -0.603683
 H        -0.779460        -0.241171        -0.063249
 H         2.092221        -2.302180        -1.730618
 H         0.775796        -1.003668        -2.057932
 H         2.457340         0.841260        -1.716622
 H         4.980160         0.584887         0.743259
 H         4.435994        -2.547115         0.638053
 H         5.243328        -1.674907         2.088228
 H         3.235914        -0.596162         2.464592
