19
Iteration:  2750charge 0 multiplicity 1
 C         0.413905         0.275194         0.315246
 C         1.572916        -0.592563        -0.193671
 C         1.488360        -1.231642        -1.580870
 C         2.555586        -0.232724        -1.267854
 O         3.817235        -0.633048        -0.863925
 C         4.214262        -0.374367         0.424670
 C         4.389868        -1.446559         1.435746
 C         3.099959        -0.742921         1.452881
 O         2.064425        -1.430222         0.810057
 H        -0.329149        -0.416634         0.732567
 H         0.846481         1.062080         0.956250
 H         0.038942         0.806271        -0.551361
 H         1.791297        -2.288552        -1.595363
 H         0.751422        -0.852410        -2.461014
 H         2.461044         0.741322        -1.837541
 H         4.784663         0.487864         0.606928
 H         4.448182        -2.529456         1.094597
 H         4.939840        -1.306953         2.407965
 H         2.782773         0.021731         2.191299
