19
Iteration:   476charge 0 multiplicity 1
 C         0.225592         0.208719         0.091500
 C         1.472993        -0.585487        -0.234123
 C         1.659837        -1.335132        -1.502650
 C         2.538020        -0.097613        -1.161062
 O         3.843913        -0.524300        -0.901796
 C         4.251562        -0.313265         0.523753
 C         4.496106        -1.689127         1.287093
 C         3.206000        -0.916931         1.465415
 O         1.936847        -1.190473         0.987575
 H         0.190320         0.715888         1.089095
 H         0.185098         1.071517        -0.675161
 H        -0.734635        -0.231929        -0.028805
 H         1.993077        -2.318548        -1.744923
 H         0.799684        -1.079765        -2.155226
 H         2.486090         0.788739        -1.750232
 H         4.980756         0.569851         0.692823
 H         4.402591        -2.557183         0.672371
 H         5.213359        -1.658714         2.084465
 H         3.227405        -0.539532         2.528161
