19
Iteration:  1147
 C         0.504514         0.347158         0.271982
 C         1.475337        -0.627048        -0.264438
 C         1.476459        -1.246937        -1.556114
 C         2.569876        -0.184116        -1.199457
 O         3.899623        -0.526781        -0.921743
 C         4.123853        -0.306978         0.528771
 C         4.404534        -1.445897         1.505087
 C         3.081188        -0.894527         1.442167
 O         2.052123        -1.556979         0.727612
 H         1.025221         0.893672         0.968625
 H         0.162845         1.131554        -0.441717
 H        -0.291853        -0.097937         0.950795
 H         1.869327        -2.195073        -1.835836
 H         0.684450        -1.004563        -2.254576
 H         2.571906         0.780138        -1.585939
 H         4.465388         0.641592         0.703025
 H         4.372396        -2.427023         1.023890
 H         5.038566        -1.297741         2.381090
 H         2.685562        -0.222005         2.171111
