19
Iteration:  4239
 C         0.261946         0.264993         0.129130
 C         1.486115        -0.546535        -0.192955
 C         1.612554        -1.107788        -1.613601
 C         2.535412        -0.068421        -1.132919
 O         3.799535        -0.683013        -0.834057
 C         4.304811        -0.399781         0.507408
 C         4.480497        -1.614328         1.339101
 C         3.165790        -0.865440         1.518377
 O         1.985528        -1.378685         0.821709
 H        -0.182192         0.909557        -0.751411
 H        -0.598615        -0.500019         0.417053
 H         0.593395         0.976110         0.947993
 H         2.063034        -2.096878        -1.535024
 H         0.828517        -0.733607        -2.287009
 H         2.546523         0.928467        -1.485715
 H         4.790722         0.496972         0.491719
 H         4.465094        -2.591033         0.802778
 H         5.145009        -1.435165         2.276068
 H         3.059521        -0.352773         2.385457
