19
Iteration:  4747charge 0 multiplicity 1
 C         0.169404         0.187970         0.117307
 C         1.458770        -0.523783        -0.188187
 C         1.622313        -1.113117        -1.634533
 C         2.589295        -0.068502        -1.097726
 O         3.845249        -0.754210        -0.769835
 C         4.330439        -0.432106         0.420896
 C         4.399574        -1.619957         1.298461
 C         3.211739        -0.777434         1.476599
 O         2.015601        -1.286534         0.899505
 H        -0.029948         0.668843        -0.843295
 H        -0.698163        -0.419684         0.408548
 H         0.272040         0.867428         1.127552
 H         1.942201        -2.095191        -1.763581
 H         0.807529        -0.756754        -2.346603
 H         2.676314         0.972639        -1.481825
 H         5.015837         0.570640         0.486839
 H         4.306352        -2.484559         0.601959
 H         4.986971        -1.628899         2.240673
 H         3.010464        -0.310705         2.504448
