19
Iteration:   503
 C         0.271846         0.245626         0.169881
 C         1.488179        -0.546329        -0.236921
 C         1.632676        -1.257478        -1.526101
 C         2.600382        -0.176655        -1.149530
 O         3.884489        -0.580618        -0.885821
 C         4.183325        -0.322995         0.534660
 C         4.462566        -1.641081         1.288473
 C         3.147608        -0.713330         1.464017
 O         1.950457        -1.390748         0.905182
 H         0.408019         0.873608         1.059360
 H        -0.062694         1.008025        -0.627530
 H        -0.652526        -0.378788         0.375722
 H         1.957999        -2.297601        -1.677757
 H         0.885989        -1.096932        -2.303780
 H         2.583804         0.872119        -1.568655
 H         4.786158         0.522559         0.674424
 H         4.187500        -2.472730         0.617363
 H         5.395847        -1.704316         1.885198
 H         3.150521        -0.265177         2.444116
