19
Iteration:  4497
 C         0.506179         0.399240         0.089823
 C         1.376540        -0.689250        -0.143701
 C         1.549844        -1.220650        -1.554368
 C         2.553028        -0.179766        -1.154690
 O         3.912884        -0.490736        -0.854028
 C         4.126587        -0.292785         0.525758
 C         4.451030        -1.558995         1.239030
 C         3.136816        -0.964903         1.460224
 O         1.951142        -1.452662         0.951297
 H         0.186293         0.906141        -0.815965
 H        -0.477062         0.037033         0.535544
 H         1.013008         1.163659         0.834310
 H         1.778808        -2.218343        -1.832733
 H         0.908906        -0.856136        -2.313203
 H         2.366987         0.698250        -1.708609
 H         4.773353         0.585670         0.744716
 H         4.569462        -2.416318         0.571434
 H         5.174296        -1.542642         2.066974
 H         2.916407        -0.610031         2.541250
