19
Iteration:  4096
 C         0.397684         0.456453         0.276743
 C         1.403519        -0.629326        -0.229561
 C         1.608044        -1.236917        -1.610267
 C         2.564597        -0.147736        -1.123162
 O         3.843663        -0.554786        -0.863346
 C         4.157290        -0.360950         0.519163
 C         4.490600        -1.631716         1.385630
 C         3.093742        -0.855403         1.449829
 O         2.011212        -1.467844         0.774180
 H        -0.094917         0.904104        -0.603639
 H        -0.396348        -0.188157         0.806958
 H         0.994315         1.250126         0.733057
 H         2.104912        -2.204853        -1.526007
 H         0.996779        -0.911297        -2.527029
 H         2.499446         0.777993        -1.752276
 H         4.704922         0.518160         0.700067
 H         4.421859        -2.579429         0.782697
 H         5.190518        -1.413995         2.203950
 H         2.750088        -0.357356         2.307030
