19
Iteration:  3350
 C         0.296867         0.326304         0.104337
 C         1.471813        -0.485818        -0.215451
 C         1.545934        -1.175235        -1.587376
 C         2.593399        -0.064069        -1.190300
 O         3.850119        -0.609571        -0.778627
 C         4.145349        -0.374445         0.560283
 C         4.552112        -1.617432         1.258286
 C         3.192945        -0.934887         1.516049
 O         1.992680        -1.422783         0.852904
 H        -0.374745         0.459731        -0.720418
 H        -0.514935        -0.232802         0.822696
 H         0.459074         1.304732         0.615812
 H         1.961313        -2.229048        -1.374478
 H         0.860281        -1.023466        -2.414695
 H         2.483950         0.832807        -1.807961
 H         4.683149         0.536891         0.606843
 H         4.569125        -2.634092         0.860968
 H         5.233998        -1.446782         2.031053
 H         3.013729        -0.571756         2.562483
