19
Iteration:  4920charge 0 multiplicity 1
 C         0.261355         0.222076         0.205798
 C         1.523363        -0.534731        -0.205077
 C         1.638227        -1.125235        -1.593979
 C         2.612040        -0.046879        -1.215674
 O         3.852380        -0.651296        -0.903074
 C         4.294983        -0.528216         0.420193
 C         4.376818        -1.666254         1.445131
 C         3.161682        -0.830496         1.457168
 O         1.948594        -1.246392         0.928254
 H        -0.112495         0.755385        -0.660628
 H        -0.512143        -0.604160         0.194819
 H         0.275062         0.761399         1.164701
 H         2.063310        -2.112198        -1.972852
 H         0.779288        -0.876892        -2.092731
 H         2.614768         0.991441        -1.660377
 H         4.871383         0.376579         0.627533
 H         4.333789        -2.680402         1.035281
 H         5.059366        -1.431253         2.253979
 H         2.831788        -0.126929         2.264818
