19
Iteration:  1826charge 0 multiplicity 1
 C         0.248489         0.297551        -0.055979
 C         1.443842        -0.559312        -0.143029
 C         1.661889        -1.389945        -1.511206
 C         2.545277        -0.174031        -1.061243
 O         3.857727        -0.272631        -0.867143
 C         4.241918        -0.380292         0.551754
 C         4.437503        -1.817201         1.198717
 C         3.265083        -0.920968         1.486486
 O         1.927045        -1.219315         0.985771
 H         0.413770         1.117847         0.599166
 H         0.091115         0.695978        -1.043142
 H        -0.579874        -0.123872         0.516015
 H         2.127119        -2.318360        -1.263422
 H         0.972529        -1.426439        -2.361556
 H         2.149673         0.724800        -1.633175
 H         5.004555         0.403504         0.697459
 H         4.264146        -2.403814         0.245235
 H         5.143708        -2.321221         1.900156
 H         3.166101        -0.558822         2.587145
