19
Iteration:   829
 C         0.414629         0.315310         0.314642
 C         1.471727        -0.665233        -0.236341
 C         1.552594        -1.175566        -1.768325
 C         2.511164        -0.091349        -1.182585
 O         3.811519        -0.682470        -0.823543
 C         4.163017        -0.314537         0.440563
 C         4.507117        -1.423112         1.449579
 C         3.136468        -0.843857         1.473647
 O         2.038920        -1.530703         0.838992
 H         0.419729         0.482423         1.332159
 H         0.401750         1.181421        -0.470271
 H        -0.586996        -0.073083         0.044980
 H         1.938884        -2.211158        -1.808913
 H         0.742776        -0.865290        -2.443810
 H         2.571206         0.945286        -1.610604
 H         4.656688         0.700811         0.594402
 H         4.598230        -2.494515         1.224286
 H         5.082198        -1.215829         2.385310
 H         2.926139        -0.099817         2.328143
