19
Iteration:  1157
 C         0.446409         0.337984         0.347829
 C         1.518685        -0.618757        -0.207095
 C         1.530030        -1.239228        -1.593477
 C         2.572758        -0.177976        -1.186176
 O         3.965559        -0.595754        -0.923828
 C         4.135155        -0.259011         0.518656
 C         4.345727        -1.454510         1.378433
 C         2.987980        -0.836209         1.461300
 O         2.044016        -1.540254         0.773698
 H         0.987178         0.919862         1.047263
 H         0.217870         0.861087        -0.639460
 H        -0.562524        -0.107626         0.638582
 H         1.929754        -2.253023        -1.576384
 H         0.814777        -0.911884        -2.354045
 H         2.429839         0.731416        -1.638683
 H         4.683936         0.660553         0.676759
 H         4.544045        -2.294267         0.705149
 H         5.004512        -1.520146         2.249470
 H         2.796368        -0.372378         2.374989
