19
Iteration:  4574charge 0 multiplicity 1
 C         0.338402         0.126819         0.302119
 C         1.492809        -0.466296        -0.193015
 C         1.483191        -1.077861        -1.676768
 C         2.677882        -0.150014        -1.228517
 O         3.912610        -0.714506        -0.942090
 C         4.277710        -0.449937         0.418088
 C         4.313368        -1.563686         1.445753
 C         3.101581        -0.701386         1.532785
 O         2.045001        -1.371612         0.845424
 H        -0.114362         0.974521        -0.272441
 H        -0.381903        -0.709352         0.611905
 H         0.683947         0.610865         1.300489
 H         1.666892        -2.171836        -1.790797
 H         0.876597        -0.639989        -2.399687
 H         2.500208         0.810708        -1.624929
 H         4.812482         0.492863         0.454991
 H         4.103882        -2.599465         1.098073
 H         5.017234        -1.473280         2.319130
 H         2.739691         0.039567         2.356587
