19
Iteration:  1954
 C         0.357550         0.284851         0.309623
 C         1.491130        -0.559132        -0.219403
 C         1.532962        -1.090329        -1.723441
 C         2.573440        -0.139455        -1.069841
 O         3.865959        -0.725930        -0.829977
 C         4.140035        -0.452151         0.419231
 C         4.528097        -1.406686         1.501006
 C         3.084670        -0.790169         1.441866
 O         2.012341        -1.556151         0.747968
 H         0.711776         0.806142         1.259493
 H         0.261503         1.124116        -0.481353
 H        -0.544350        -0.172426         0.235200
 H         1.848799        -2.090914        -1.857248
 H         0.913331        -0.830698        -2.570697
 H         2.425072         0.853300        -1.497290
 H         4.651856         0.637999         0.489981
 H         4.696865        -2.444403         1.152153
 H         5.127062        -0.901439         2.273304
 H         2.798311        -0.077103         2.118895
