19
Iteration:  3415
 C         0.393349         0.287840         0.194636
 C         1.516518        -0.600821        -0.188264
 C         1.663811        -1.352779        -1.583676
 C         2.462817        -0.106186        -1.248908
 O         3.920665        -0.328309        -0.896482
 C         4.123621        -0.377569         0.500751
 C         4.333231        -1.814048         1.282010
 C         3.150205        -0.806315         1.550927
 O         2.023458        -1.332421         0.939621
 H         0.078667         0.679325        -0.720202
 H        -0.547917        -0.137377         0.745569
 H         0.824738         1.192234         0.521543
 H         2.196501        -2.308936        -1.787478
 H         0.800158        -1.179844        -2.279697
 H         2.452562         0.789072        -1.854570
 H         4.806111         0.458271         0.881834
 H         4.001070        -2.714527         0.807117
 H         5.074198        -2.022022         2.045930
 H         2.925881        -0.364627         2.581928
