19
Iteration:  4409charge 0 multiplicity 1
 C         0.201906         0.251555         0.163085
 C         1.524062        -0.605764        -0.166364
 C         1.630036        -1.139211        -1.646005
 C         2.527297        -0.047718        -1.128508
 O         3.894279        -0.588259        -0.916196
 C         4.278378        -0.483513         0.386892
 C         4.402331        -1.620307         1.380020
 C         3.165206        -0.812033         1.408726
 O         1.987500        -1.378348         0.980908
 H        -0.134622         0.742825        -0.729540
 H        -0.632311        -0.426341         0.414330
 H         0.387441         0.984572         0.999309
 H         2.113543        -2.046610        -1.567484
 H         0.792228        -0.834173        -2.250718
 H         2.578046         1.045241        -1.153515
 H         5.109613         0.301597         0.596763
 H         4.217857        -2.632849         1.018217
 H         5.079414        -1.460254         2.189447
 H         3.069596        -0.155548         2.389097
