19
Iteration:  1163charge 0 multiplicity 1
 C         0.447226         0.317753         0.326098
 C         1.508395        -0.647818        -0.153611
 C         1.577651        -1.227317        -1.619523
 C         2.587993        -0.198298        -1.194102
 O         3.954518        -0.607513        -0.878052
 C         4.137086        -0.247063         0.496627
 C         4.371401        -1.494646         1.313588
 C         2.996157        -0.798504         1.457568
 O         2.013162        -1.521643         0.780794
 H         0.713626         1.126599         1.159424
 H         0.136775         1.007080        -0.478619
 H        -0.459930        -0.173321         0.562816
 H         1.861968        -2.291931        -1.465835
 H         0.853630        -0.928116        -2.390145
 H         2.433609         0.854206        -1.694412
 H         4.704844         0.765274         0.713795
 H         4.455178        -2.369045         0.653645
 H         5.016752        -1.444975         2.198369
 H         2.731830        -0.366764         2.491478
