19
Iteration:   459charge 0 multiplicity 1
 C         0.208128         0.255705        -0.040035
 C         1.484708        -0.607319        -0.132563
 C         1.594329        -1.253940        -1.478923
 C         2.507062        -0.145430        -1.177265
 O         3.919193        -0.454668        -0.863866
 C         4.240253        -0.425074         0.476681
 C         4.512453        -1.708853         1.211323
 C         3.234541        -0.845358         1.507168
 O         1.910739        -1.251028         1.038212
 H         0.192104         0.652815         0.966580
 H         0.050772         1.170277        -0.701001
 H        -0.663012        -0.439860        -0.056322
 H         2.186103        -2.213261        -1.402578
 H         0.918182        -1.432113        -2.330632
 H         2.416061         0.907327        -1.561311
 H         4.718236         0.488074         0.672317
 H         4.530971        -2.619395         0.553863
 H         5.263485        -1.755451         2.025194
 H         3.168174        -0.125085         2.374411
