19
Iteration:  2422
 C         0.298018         0.262202         0.117844
 C         1.538467        -0.552798        -0.171939
 C         1.684800        -1.206520        -1.565729
 C         2.554406        -0.129045        -1.218048
 O         3.849317        -0.554630        -0.888155
 C         4.236668        -0.345229         0.533326
 C         4.413879        -1.666227         1.294105
 C         3.137088        -0.823614         1.537582
 O         1.956868        -1.381474         0.898677
 H         0.581931         1.216981         0.516510
 H        -0.470558         0.301558        -0.661545
 H        -0.297652        -0.187011         0.867897
 H         2.120546        -2.172360        -1.644299
 H         0.854141        -1.023442        -2.269493
 H         2.348797         0.898599        -1.540212
 H         4.666703         0.512635         0.726598
 H         4.238350        -2.520663         0.705930
 H         5.091737        -1.794782         2.123232
 H         3.048685        -0.146718         2.400756
