19
Iteration:  3792
 C         0.448548         0.335376         0.281907
 C         1.491876        -0.578219        -0.193602
 C         1.550982        -1.166388        -1.519009
 C         2.563254        -0.152536        -1.221009
 O         3.879755        -0.573235        -0.909462
 C         4.155915        -0.341400         0.549571
 C         4.336140        -1.561225         1.394566
 C         3.052803        -0.845185         1.479501
 O         2.093050        -1.530112         0.734767
 H         0.142197         1.017492        -0.594256
 H        -0.494140        -0.018083         0.620793
 H         0.934918         1.028612         1.033554
 H         1.986917        -2.242719        -1.650120
 H         0.826157        -1.047061        -2.353452
 H         2.646875         0.828925        -1.741385
 H         4.639970         0.567243         0.694035
 H         4.185690        -2.400217         0.734334
 H         5.075210        -1.487064         2.164403
 H         2.737639        -0.314745         2.340621
