19
Iteration:  3528charge 0 multiplicity 1
 C         0.388849         0.319152         0.290749
 C         1.502233        -0.620204        -0.181352
 C         1.532729        -1.106769        -1.561377
 C         2.580036        -0.155220        -1.187641
 O         3.942450        -0.576805        -0.924403
 C         4.196948        -0.400320         0.430740
 C         4.355938        -1.546478         1.489853
 C         3.064089        -0.807874         1.423812
 O         2.033428        -1.522833         0.767671
 H         0.096108         0.883138        -0.604141
 H        -0.334302        -0.447006         0.718478
 H         0.674005         1.133812         1.041325
 H         1.805218        -2.178418        -1.717617
 H         0.851415        -0.895269        -2.340567
 H         2.588157         0.910885        -1.414643
 H         4.716465         0.489028         0.578903
 H         4.187409        -2.585700         1.061525
 H         5.079284        -1.318518         2.283207
 H         2.715010        -0.021484         2.156997
