19
Iteration:  4229charge 0 multiplicity 1
 C         0.287034         0.199337         0.106381
 C         1.467537        -0.575875        -0.190092
 C         1.566704        -1.089598        -1.624373
 C         2.530013        -0.076002        -1.076761
 O         3.844635        -0.681405        -0.813904
 C         4.249744        -0.400860         0.476051
 C         4.431452        -1.647633         1.351558
 C         3.195385        -0.737462         1.451497
 O         2.020094        -1.351034         0.867339
 H         0.024361         0.963564        -0.740767
 H        -0.626327        -0.404080         0.463867
 H         0.461362         0.819184         1.057182
 H         2.089143        -1.986524        -1.960414
 H         0.873601        -0.828227        -2.455870
 H         2.532772         0.923274        -1.395132
 H         4.905085         0.391119         0.594917
 H         4.407080        -2.646394         0.834391
 H         5.227304        -1.795860         2.153422
 H         2.973144        -0.408575         2.384424
