19
Iteration:   750
 C         0.307844         0.253316         0.124224
 C         1.454988        -0.616118        -0.221466
 C         1.662776        -1.271336        -1.578390
 C         2.529150        -0.133829        -1.194062
 O         3.864047        -0.394944        -0.898244
 C         4.223385        -0.375206         0.553437
 C         4.421242        -1.683353         1.286901
 C         3.202193        -0.860149         1.476102
 O         1.946401        -1.363214         0.945177
 H         0.751198         1.270807         0.400823
 H        -0.369432         0.657474        -0.729565
 H        -0.242201        -0.054800         0.950939
 H         2.151481        -2.174200        -1.295048
 H         0.923095        -1.400743        -2.330590
 H         2.277493         0.836207        -1.566983
 H         4.846128         0.616346         0.878407
 H         4.264180        -2.633447         0.822333
 H         5.150527        -1.877921         2.014548
 H         3.098348        -0.293101         2.460542
