19
Iteration:  2605charge 0 multiplicity 1
 C         0.224046         0.245269         0.130938
 C         1.437649        -0.612049        -0.166873
 C         1.589340        -1.301259        -1.591671
 C         2.549333        -0.123011        -1.159249
 O         3.879757        -0.573556        -0.903400
 C         4.295740        -0.375827         0.525740
 C         4.440485        -1.667557         1.312275
 C         3.204021        -0.758866         1.479856
 O         1.971527        -1.255031         0.930685
 H        -0.404356        -0.308584         0.745354
 H         0.561977         1.128394         0.712416
 H        -0.155644         0.638194        -0.814656
 H         2.135094        -2.246991        -1.660536
 H         0.783431        -1.167728        -2.237509
 H         2.406430         0.787847        -1.677472
 H         4.877573         0.564767         0.650463
 H         4.459453        -2.591853         0.754786
 H         5.188153        -1.665392         2.055711
 H         3.076955        -0.186765         2.384539
