19
Iteration:  4364charge 0 multiplicity 1
 C         0.266659         0.301311         0.191518
 C         1.510671        -0.557610        -0.198777
 C         1.463128        -1.107314        -1.659141
 C         2.576808        -0.198874        -1.163403
 O         3.874244        -0.711530        -0.834076
 C         4.277361        -0.283776         0.583287
 C         4.464470        -1.582588         1.295769
 C         3.171599        -0.846787         1.514533
 O         1.997387        -1.417768         0.830760
 H        -0.128353         0.998325        -0.541428
 H        -0.443948        -0.482383         0.326237
 H         0.400918         0.761532         1.275592
 H         1.899764        -2.103879        -1.834658
 H         0.881347        -0.565111        -2.419258
 H         2.788949         0.777814        -1.700927
 H         4.754640         0.772296         0.519492
 H         4.440949        -2.449684         0.673201
 H         5.079141        -1.469256         2.181377
 H         3.050843        -0.299765         2.528737
