19
Iteration:  1228charge 0 multiplicity 1
 C         0.182480         0.195986         0.003969
 C         1.426624        -0.594019        -0.095073
 C         1.631517        -1.190529        -1.483660
 C         2.543440        -0.057882        -1.064417
 O         3.928292        -0.489601        -0.918324
 C         4.271596        -0.498824         0.490720
 C         4.438374        -1.681386         1.249299
 C         3.198841        -0.723596         1.478062
 O         1.991603        -1.347965         0.960697
 H         0.278438         0.878835         0.889723
 H        -0.063477         0.472936        -0.939135
 H        -0.591091        -0.565024         0.023419
 H         1.979329        -2.249825        -1.391459
 H         0.910505        -0.923251        -2.274097
 H         2.551336         0.921443        -1.746649
 H         4.804295         0.443851         0.768766
 H         4.232454        -2.484078         0.531469
 H         5.320293        -1.912168         1.858975
 H         2.986783        -0.001294         2.382012
