19
Iteration:  2949
 C         0.323203         0.262969         0.087118
 C         1.526782        -0.616312        -0.244888
 C         1.544430        -1.171299        -1.619928
 C         2.576587        -0.085428        -1.195602
 O         3.830861        -0.609161        -0.849958
 C         4.244017        -0.427896         0.478509
 C         4.504233        -1.599786         1.309543
 C         3.133847        -0.843199         1.563702
 O         1.965061        -1.321639         0.966815
 H         0.388639         1.335682         0.560691
 H        -0.383559         0.463426        -0.682520
 H        -0.147144        -0.413756         0.850825
 H         1.918724        -2.258178        -1.722806
 H         0.693827        -1.063690        -2.329805
 H         2.525976         0.951505        -1.504754
 H         4.774582         0.505018         0.860900
 H         4.467504        -2.507432         0.681916
 H         5.235924        -1.540038         2.072304
 H         2.992971        -0.236922         2.522491
