19
Iteration:  3147
 C         0.291224         0.217262         0.231962
 C         1.548960        -0.516490        -0.153853
 C         1.660587        -1.305982        -1.534504
 C         2.555628        -0.089142        -1.258487
 O         3.844048        -0.521020        -0.982170
 C         4.234854        -0.436501         0.477872
 C         4.391132        -1.683890         1.369598
 C         3.161139        -0.779404         1.468049
 O         1.965395        -1.277837         0.897335
 H         0.343098         0.260361         1.373953
 H         0.088999         1.147160        -0.197662
 H        -0.623682        -0.388838         0.001550
 H         2.068904        -2.288373        -1.483307
 H         0.987473        -1.257138        -2.344660
 H         2.359414         0.892164        -1.635149
 H         4.765790         0.594006         0.672751
 H         4.109781        -2.696511         0.964237
 H         5.211019        -1.607324         2.140612
 H         3.056110        -0.165421         2.370913
