19
Iteration:  4368
 C         0.273369         0.284953         0.191858
 C         1.494320        -0.542985        -0.212861
 C         1.499310        -1.078062        -1.640521
 C         2.599973        -0.183632        -1.195058
 O         3.845524        -0.731362        -0.801462
 C         4.260591        -0.294909         0.567549
 C         4.473585        -1.579037         1.282713
 C         3.168623        -0.853878         1.502326
 O         2.027620        -1.395309         0.855734
 H        -0.073712         0.970174        -0.563415
 H        -0.464074        -0.561568         0.324724
 H         0.274645         0.723477         1.092072
 H         1.804871        -2.060418        -1.916528
 H         0.757918        -0.696323        -2.392230
 H         2.626195         0.832103        -1.566500
 H         4.765215         0.663050         0.550690
 H         4.443418        -2.527202         0.698207
 H         5.094006        -1.480337         2.171928
 H         3.006125        -0.299430         2.502981
