19
Iteration:  1941
 C         0.329342         0.304460         0.198002
 C         1.433149        -0.697890        -0.188389
 C         1.519757        -1.039089        -1.617140
 C         2.592342        -0.148932        -1.136170
 O         3.842885        -0.738977        -0.914186
 C         4.206580        -0.367295         0.502274
 C         4.535920        -1.419931         1.518569
 C         3.108260        -0.858839         1.390834
 O         2.039029        -1.482031         0.766972
 H         0.484345         0.780699         1.141400
 H         0.211229         1.091144        -0.576149
 H        -0.584074        -0.196194         0.391110
 H         1.850510        -2.030454        -1.886614
 H         0.732439        -0.524232        -2.164205
 H         2.785476         0.869842        -1.360416
 H         4.602792         0.694482         0.646245
 H         4.662615        -2.460001         1.316146
 H         5.102736        -1.159320         2.365575
 H         2.776648        -0.243740         2.177833
