19
Iteration:  1637charge 0 multiplicity 1
 C         0.458631         0.328115         0.283510
 C         1.448252        -0.665339        -0.241443
 C         1.561388        -1.182631        -1.598749
 C         2.609810        -0.177052        -1.189705
 O         3.875997        -0.504714        -0.894752
 C         4.178170        -0.318700         0.497899
 C         4.414813        -1.512292         1.429305
 C         3.033731        -0.899725         1.443332
 O         1.996146        -1.545538         0.802308
 H         0.945124         0.855953         1.189905
 H         0.374707         1.124975        -0.579894
 H        -0.458538        -0.047126         0.661909
 H         1.865980        -2.209221        -1.787933
 H         0.914186        -0.608489        -2.287730
 H         2.568555         0.725520        -1.806238
 H         4.715381         0.774366         0.677210
 H         4.355195        -2.523670         1.029744
 H         4.943867        -1.287169         2.354728
 H         2.800314        -0.308916         2.252130
