19
Iteration:  3692charge 0 multiplicity 1
 C         0.307751         0.211433         0.148928
 C         1.484503        -0.593908        -0.205458
 C         1.514309        -1.183147        -1.636970
 C         2.556197        -0.108822        -1.156427
 O         3.918214        -0.481416        -0.844778
 C         4.308881        -0.467423         0.497511
 C         4.360046        -1.746831         1.359087
 C         3.168844        -0.828652         1.477790
 O         1.993247        -1.280645         0.915447
 H         0.073608         1.057101        -0.491870
 H        -0.544968        -0.434266         0.331415
 H         0.439430         0.821666         1.081862
 H         2.020152        -2.196457        -1.822654
 H         0.860564        -0.869041        -2.533927
 H         2.447821         0.892931        -1.691213
 H         4.808371         0.487056         0.683721
 H         4.204126        -2.648518         0.839497
 H         5.096056        -1.648598         2.116649
 H         3.046314        -0.087798         2.265740
