19
Iteration:  2292
 C         0.275912         0.217719         0.072344
 C         1.506897        -0.525196        -0.214394
 C         1.487542        -1.155844        -1.566152
 C         2.561339        -0.169310        -1.216109
 O         3.897190        -0.587472        -0.828898
 C         4.222174        -0.380896         0.511211
 C         4.448585        -1.605429         1.368795
 C         3.210013        -0.824353         1.507319
 O         2.009975        -1.363724         0.870894
 H         0.317243         0.633036         1.140671
 H         0.054118         1.089705        -0.572217
 H        -0.544516        -0.429935         0.144188
 H         1.853788        -2.213508        -1.563679
 H         0.673273        -0.895898        -2.215660
 H         2.630965         0.847826        -1.633590
 H         4.637380         0.557792         0.708320
 H         4.457603        -2.500559         0.721248
 H         5.129549        -1.636424         2.234088
 H         3.168100        -0.341214         2.526557
