19
Iteration:  2632charge 0 multiplicity 1
 C         0.296005         0.198482         0.154202
 C         1.536365        -0.537828        -0.147312
 C         1.648735        -1.356476        -1.451578
 C         2.607311        -0.106217        -1.221827
 O         3.859923        -0.458854        -0.986722
 C         4.201396        -0.440178         0.488647
 C         4.305673        -1.696697         1.314009
 C         3.180125        -0.664931         1.473712
 O         1.993081        -1.335024         0.941034
 H        -0.625494        -0.564365         0.186339
 H         0.309750         0.811703         1.091779
 H         0.132251         1.128493        -0.482406
 H         2.123098        -2.357960        -1.262341
 H         0.766148        -1.292141        -2.235310
 H         2.437730         0.822915        -1.896297
 H         4.936482         0.374123         0.485880
 H         4.151626        -2.709510         0.856345
 H         5.213160        -1.708222         2.036552
 H         3.039989         0.021556         2.351480
