19
Iteration:   858charge 0 multiplicity 1
 C         0.358338         0.208254         0.269015
 C         1.486854        -0.666420        -0.212608
 C         1.546965        -1.099882        -1.620033
 C         2.601965        -0.143697        -1.111844
 O         3.877196        -0.736300        -0.880632
 C         4.131348        -0.319444         0.411024
 C         4.476623        -1.429692         1.424182
 C         3.078136        -0.796662         1.490683
 O         2.042412        -1.448745         0.751364
 H         0.478474         0.533913         1.433017
 H         0.345220         1.122064        -0.405662
 H        -0.540806        -0.306488        -0.001270
 H         1.623946        -2.154700        -1.686809
 H         0.871475        -0.556824        -2.206111
 H         2.610225         0.865824        -1.449413
 H         4.712357         0.706610         0.575045
 H         4.464621        -2.440538         1.111194
 H         5.031805        -1.138954         2.256005
 H         2.966738        -0.140881         2.349341
