19
Iteration:  4821
 C         0.526803         0.461256         0.339041
 C         1.454157        -0.628100        -0.256014
 C         1.545283        -1.311280        -1.639737
 C         2.565817        -0.232470        -1.137394
 O         3.929423        -0.559340        -0.848006
 C         4.173493        -0.285892         0.550590
 C         4.314692        -1.557817         1.343544
 C         3.040864        -0.825347         1.448293
 O         2.033369        -1.492081         0.731788
 H         0.248778         1.050057        -0.569002
 H        -0.432374         0.156342         0.854482
 H         1.238159         0.850684         1.133702
 H         1.843015        -2.283529        -1.434036
 H         0.710905        -1.175738        -2.439157
 H         2.403178         0.754130        -1.729479
 H         4.737746         0.691333         0.906004
 H         4.160922        -2.469701         0.712263
 H         5.119808        -1.506174         2.154338
 H         2.552936        -0.124242         2.204049
