19
Iteration:  3237charge 0 multiplicity 1
 C         0.387250         0.362453         0.236978
 C         1.491678        -0.649963        -0.224938
 C         1.550112        -1.183295        -1.612230
 C         2.533628        -0.194812        -1.150438
 O         3.899741        -0.608743        -0.851571
 C         4.198012        -0.289965         0.474389
 C         4.488720        -1.512355         1.308119
 C         3.124938        -0.907127         1.427710
 O         1.940697        -1.467707         0.889819
 H         0.902427         1.350608         0.107290
 H        -0.575065         0.365721        -0.365557
 H         0.109614         0.184867         1.273723
 H         1.936749        -2.174872        -1.554177
 H         0.867032        -0.916240        -2.426145
 H         2.438720         0.871961        -1.446809
 H         4.443884         0.780619         0.827275
 H         4.607916        -2.398918         0.659328
 H         5.055543        -1.480383         2.253347
 H         2.912531        -0.297573         2.261930
