19
Iteration:  1739charge 0 multiplicity 1
 C         0.207626         0.271185         0.127877
 C         1.531153        -0.573826        -0.184928
 C         1.621214        -1.207363        -1.584218
 C         2.494871        -0.090450        -1.121227
 O         3.888466        -0.487546        -0.898086
 C         4.220190        -0.454094         0.459226
 C         4.406101        -1.674818         1.406521
 C         3.195744        -0.821046         1.452242
 O         2.051102        -1.396986         0.864571
 H         0.472206         1.003969         0.850839
 H        -0.111175         0.835798        -0.770747
 H        -0.744655        -0.347460         0.524034
 H         2.166582        -2.143876        -1.662670
 H         0.965267        -1.011592        -2.392886
 H         2.544134         0.967313        -1.451671
 H         4.778746         0.454128         0.721991
 H         4.053813        -2.652214         1.107437
 H         5.088966        -1.618375         2.275389
 H         3.073039        -0.158832         2.384835
