19
Iteration:  3403
 C         0.401440         0.331598         0.148960
 C         1.565273        -0.651013        -0.215737
 C         1.624718        -1.319199        -1.560910
 C         2.573845        -0.145358        -1.231018
 O         3.910480        -0.316662        -0.898295
 C         4.189670        -0.438288         0.549087
 C         4.298415        -1.709422         1.250430
 C         3.113350        -0.841234         1.565169
 O         1.958417        -1.355509         0.930864
 H        -0.322619         0.432579        -0.634172
 H        -0.092362        -0.241209         0.968665
 H         0.686791         1.192992         0.682367
 H         2.073141        -2.384767        -1.650594
 H         0.760159        -1.103611        -2.227253
 H         2.264051         0.827930        -1.680291
 H         4.857611         0.500880         0.771006
 H         3.919370        -2.511911         0.630421
 H         5.176847        -1.871326         1.782828
 H         3.015490        -0.232182         2.484591
