19
Iteration:  4558charge 0 multiplicity 1
 C         0.238495         0.240548         0.420081
 C         1.479759        -0.566215        -0.248329
 C         1.544211        -1.105936        -1.661497
 C         2.608875        -0.153662        -1.213220
 O         3.995617        -0.711708        -0.906432
 C         4.243081        -0.438664         0.454116
 C         4.390918        -1.565745         1.487952
 C         3.117483        -0.727656         1.337519
 O         1.968928        -1.361975         0.825810
 H        -0.150480         0.960024        -0.274791
 H        -0.441278        -0.554242         0.600587
 H         0.451933         0.629677         1.392410
 H         1.897485        -2.122389        -1.698895
 H         0.706268        -0.655830        -2.362366
 H         2.829749         0.857670        -1.686841
 H         4.897079         0.441751         0.730277
 H         4.263442        -2.544462         1.059065
 H         5.107171        -1.451846         2.262301
 H         2.973443        -0.006434         2.060767
