19
Iteration:  3575
 C         0.391969         0.423505         0.337378
 C         1.451187        -0.595841        -0.240039
 C         1.624611        -1.237278        -1.633666
 C         2.606313        -0.199040        -1.163359
 O         3.880949        -0.615708        -0.830590
 C         4.118023        -0.272971         0.559774
 C         4.465449        -1.588641         1.303873
 C         3.047221        -0.835819         1.438890
 O         2.000930        -1.499130         0.754674
 H        -0.123750         1.037613        -0.534392
 H        -0.165011         0.017146         1.165802
 H         0.953651         1.363764         0.760188
 H         1.841611        -2.291636        -1.528718
 H         0.900191        -1.094041        -2.500400
 H         2.583458         0.786860        -1.720081
 H         4.611166         0.641209         0.888468
 H         4.420656        -2.387232         0.654329
 H         5.102343        -1.577693         2.160338
 H         2.746164        -0.422804         2.349728
