19
Iteration:  1813charge 0 multiplicity 1
 C         0.198732         0.318477         0.001275
 C         1.433668        -0.611546        -0.193171
 C         1.744688        -1.367651        -1.414873
 C         2.496595        -0.111689        -1.122716
 O         3.923494        -0.348708        -0.817507
 C         4.282197        -0.405233         0.505564
 C         4.412728        -1.788618         1.078157
 C         3.198504        -0.950648         1.447490
 O         1.898872        -1.207804         1.053941
 H         0.476990         1.174668         0.692179
 H        -0.152844         0.749175        -1.009590
 H        -0.609533        -0.265366         0.236511
 H         2.259625        -2.304029        -1.369463
 H         1.087455        -1.263509        -2.209703
 H         2.463548         0.784039        -1.744065
 H         4.828316         0.517790         0.981191
 H         4.334782        -2.683235         0.486461
 H         5.135587        -1.757084         1.883769
 H         3.248387        -0.463149         2.378164
