19
Iteration:   812
 C         0.370237         0.300684         0.239509
 C         1.537408        -0.654449        -0.230150
 C         1.542111        -1.192225        -1.556310
 C         2.581988        -0.214691        -1.117324
 O         3.863040        -0.607830        -0.901231
 C         4.133968        -0.310924         0.509490
 C         4.460543        -1.483995         1.397772
 C         3.055855        -0.809236         1.452751
 O         2.033838        -1.485075         0.762339
 H         0.788292         0.687179         1.267192
 H         0.399493         1.236640        -0.258371
 H        -0.668373        -0.142424         0.225926
 H         2.029280        -2.182175        -1.730421
 H         0.800730        -0.823398        -2.321721
 H         2.402871         0.780243        -1.570552
 H         4.651078         0.646075         0.671649
 H         4.535259        -2.407859         0.783730
 H         5.160384        -1.072485         2.174396
 H         2.803439        -0.296679         2.346239
