19
Iteration:  3025
 C         0.545220         0.325087         0.296964
 C         1.554564        -0.610706        -0.240945
 C         1.488976        -1.267150        -1.606610
 C         2.563074        -0.176977        -1.192330
 O         3.925931        -0.510468        -0.911625
 C         4.108252        -0.340933         0.476608
 C         4.313388        -1.545626         1.455174
 C         3.034582        -0.758522         1.468373
 O         2.063556        -1.542605         0.808249
 H         1.011604         1.339022         0.468991
 H        -0.224059         0.551083        -0.376403
 H        -0.028342        -0.067844         1.146949
 H         1.731759        -2.329586        -1.921114
 H         0.670893        -0.933687        -2.345674
 H         2.347400         0.740075        -1.758333
 H         4.670634         0.578006         0.848295
 H         4.185099        -2.532562         0.974284
 H         5.174505        -1.389276         2.095116
 H         2.775393        -0.043331         2.350999
