19
Iteration:   985charge 0 multiplicity 1
 C         0.206637         0.294025         0.097736
 C         1.458389        -0.604162        -0.237705
 C         1.639048        -1.399678        -1.516411
 C         2.527970        -0.197890        -1.188691
 O         3.912098        -0.354032        -0.832266
 C         4.264064        -0.397921         0.578844
 C         4.435407        -1.763964         1.146558
 C         3.188453        -0.900519         1.506279
 O         1.942923        -1.121065         0.950940
 H         0.268123         0.971656         0.910669
 H        -0.141957         0.754047        -0.789186
 H        -0.527047        -0.553168         0.420655
 H         2.249633        -2.330512        -1.477512
 H         0.851993        -1.403905        -2.300577
 H         2.442984         0.880631        -1.446596
 H         4.979192         0.322904         0.745988
 H         4.719296        -2.691580         0.607380
 H         5.152198        -1.662806         2.012135
 H         3.121331        -0.456373         2.500292
