19
Iteration:   550
 C         0.442620         0.310315         0.285518
 C         1.453116        -0.663220        -0.265673
 C         1.540746        -1.200146        -1.635624
 C         2.522255        -0.139470        -1.201656
 O         3.858885        -0.590733        -0.851675
 C         4.166953        -0.403550         0.471058
 C         4.498198        -1.460565         1.489316
 C         3.082470        -0.817084         1.514436
 O         2.042479        -1.490259         0.711772
 H         0.971622         1.191954         0.828547
 H        -0.188587         0.712737        -0.352577
 H        -0.243518        -0.109833         1.081481
 H         1.754010        -2.209936        -1.917466
 H         0.732322        -0.854944        -2.267658
 H         2.589960         0.786451        -1.774731
 H         4.620126         0.573271         0.874999
 H         4.365099        -2.467539         1.127637
 H         5.110180        -1.243329         2.347857
 H         2.831076        -0.036960         2.113140
