19
Iteration:   781
 C         0.350787         0.288057         0.221917
 C         1.515253        -0.568831        -0.239071
 C         1.572469        -1.266546        -1.563194
 C         2.564220        -0.267453        -1.200441
 O         3.900378        -0.440851        -0.885839
 C         4.184872        -0.291497         0.549585
 C         4.396118        -1.598497         1.326862
 C         3.115798        -0.864686         1.490017
 O         2.004107        -1.415401         0.807025
 H         0.833264         0.994920         1.050652
 H        -0.100172         0.806107        -0.662845
 H        -0.481336        -0.208318         0.750582
 H         1.812531        -2.300065        -1.312183
 H         0.924446        -0.971021        -2.392254
 H         2.309817         0.641854        -1.734137
 H         4.754446         0.710229         0.845376
 H         4.445115        -2.525634         0.749544
 H         5.084772        -1.599279         2.165800
 H         2.991406        -0.441938         2.485404
