19
Iteration:  4148
 C         0.356553         0.413465         0.159823
 C         1.496717        -0.587588        -0.200003
 C         1.548108        -1.282946        -1.577195
 C         2.600044        -0.189558        -1.160778
 O         3.925695        -0.502574        -0.784759
 C         4.172949        -0.274593         0.542344
 C         4.435271        -1.688074         1.183282
 C         3.131403        -0.914361         1.542530
 O         1.985499        -1.421391         0.841708
 H         0.061936         0.897775        -0.782555
 H        -0.635059        -0.208004         0.455881
 H         0.657412         1.186085         0.914485
 H         1.733566        -2.321191        -1.637010
 H         0.761822        -1.073533        -2.349595
 H         2.409729         0.878649        -1.546340
 H         4.681670         0.686904         0.952707
 H         4.337920        -2.494616         0.452076
 H         5.028228        -1.642310         2.020220
 H         2.935720        -0.273799         2.451080
