19
Iteration:  2756
 C         0.468917         0.233847         0.342430
 C         1.539346        -0.548068        -0.190775
 C         1.499668        -1.254086        -1.543938
 C         2.614186        -0.203798        -1.244489
 O         3.820964        -0.652178        -0.909444
 C         4.187994        -0.348185         0.453731
 C         4.375788        -1.494038         1.442853
 C         3.093775        -0.719210         1.442757
 O         2.045814        -1.436515         0.762999
 H        -0.339639        -0.353357         0.788259
 H         0.706060         1.188000         0.895948
 H        -0.172510         0.694011        -0.475959
 H         1.829077        -2.290092        -1.636748
 H         0.839005        -0.949621        -2.254622
 H         2.565719         0.723238        -1.790374
 H         4.759057         0.679101         0.403502
 H         4.237269        -2.537384         1.215479
 H         5.007053        -1.169331         2.282551
 H         2.786564         0.000743         2.198529
