19
Iteration:   789
 C         0.382693         0.308797         0.237285
 C         1.476977        -0.600780        -0.220422
 C         1.550026        -1.256187        -1.544104
 C         2.562550        -0.202066        -1.254009
 O         3.949082        -0.485212        -0.840569
 C         4.205538        -0.267218         0.510689
 C         4.408015        -1.555841         1.337196
 C         3.111713        -0.875833         1.455721
 O         2.016968        -1.464322         0.813402
 H         0.672035         1.034572         1.056117
 H         0.050972         0.924525        -0.516981
 H        -0.475475        -0.430657         0.519489
 H         1.615431        -2.347232        -1.253635
 H         0.771996        -1.131294        -2.384623
 H         2.474365         0.849583        -1.656735
 H         4.505182         0.692730         0.755115
 H         4.136801        -2.429133         0.684178
 H         5.024187        -1.577429         2.308034
 H         2.845426        -0.431908         2.369694
