19
Iteration:  2536charge 0 multiplicity 1
 C         0.430698         0.378964         0.298489
 C         1.460015        -0.641600        -0.209565
 C         1.543415        -1.326740        -1.648953
 C         2.514786        -0.215178        -1.130516
 O         3.886264        -0.568303        -0.883523
 C         4.206670        -0.349078         0.486524
 C         4.415551        -1.502087         1.426654
 C         3.113589        -0.746048         1.458508
 O         1.991140        -1.490218         0.758076
 H         0.268416         0.380121         1.410119
 H         0.684853         1.411040         0.049633
 H        -0.487611         0.409055        -0.337452
 H         1.978922        -2.327081        -1.596092
 H         0.901612        -0.937181        -2.444225
 H         2.449127         0.760411        -1.677183
 H         4.816070         0.678598         0.604977
 H         4.592047        -2.463080         0.920949
 H         5.180749        -1.382013         2.248840
 H         2.796251        -0.210495         2.369026
