19
Iteration:  4559
 C         0.238092         0.232185         0.415110
 C         1.493982        -0.566419        -0.258596
 C         1.536161        -1.096271        -1.657423
 C         2.598104        -0.154741        -1.215713
 O         3.998648        -0.712177        -0.910687
 C         4.240981        -0.446962         0.455590
 C         4.385397        -1.557660         1.487430
 C         3.119107        -0.725183         1.345754
 O         1.969575        -1.363547         0.830332
 H        -0.167922         0.939688        -0.242127
 H        -0.449975        -0.538781         0.588374
 H         0.478439         0.641831         1.419714
 H         1.878074        -2.087633        -1.700551
 H         0.765074        -0.671228        -2.375726
 H         2.840967         0.820736        -1.682182
 H         4.914011         0.449868         0.736635
 H         4.255635        -2.521346         1.050008
 H         5.101359        -1.472591         2.270510
 H         2.991828        -0.001380         2.066892
