19
Iteration:   357charge 0 multiplicity 1
 C         0.403364         0.334014         0.181132
 C         1.473529        -0.595282        -0.160609
 C         1.540234        -1.205583        -1.532857
 C         2.575183        -0.188113        -1.146660
 O         3.832989        -0.626039        -0.842186
 C         4.183586        -0.300016         0.500342
 C         4.425763        -1.494652         1.318544
 C         3.104896        -0.832176         1.451754
 O         2.078816        -1.492097         0.799659
 H         0.825012         1.272349         0.586188
 H        -0.307230         0.441188        -0.771406
 H        -0.215262        -0.059751         0.945528
 H         1.761820        -2.229211        -1.729334
 H         0.860533        -1.010970        -2.344105
 H         2.600706         0.781684        -1.606585
 H         4.681597         0.563804         0.727564
 H         4.450409        -2.352147         0.692926
 H         5.029037        -1.333551         2.190700
 H         2.687586        -0.237141         2.369009
