19
Iteration:  3577charge 0 multiplicity 1
 C         0.394371         0.441999         0.328371
 C         1.456365        -0.600223        -0.235757
 C         1.627709        -1.237281        -1.626918
 C         2.590484        -0.181557        -1.139546
 O         3.896715        -0.616995        -0.829931
 C         4.108400        -0.283522         0.557787
 C         4.464345        -1.575601         1.290387
 C         3.037232        -0.851555         1.424609
 O         1.997585        -1.499668         0.763583
 H        -0.136379         0.983044        -0.503346
 H        -0.201393        -0.011812         1.099245
 H         0.977373         1.299519         0.724264
 H         1.865106        -2.308049        -1.542922
 H         0.924791        -1.114361        -2.426684
 H         2.627846         0.738536        -1.715112
 H         4.669517         0.699902         0.835057
 H         4.422920        -2.444110         0.638758
 H         5.122413        -1.551577         2.139182
 H         2.709373        -0.407563         2.341636
