19
Iteration:  4759charge 0 multiplicity 1
 C         0.152520         0.208617         0.107094
 C         1.471821        -0.540208        -0.174947
 C         1.652124        -1.059717        -1.571336
 C         2.633169        -0.103339        -1.073914
 O         3.796745        -0.760818        -0.827367
 C         4.281416        -0.381662         0.486330
 C         4.489699        -1.630018         1.337889
 C         3.195326        -0.815801         1.363972
 O         1.945508        -1.327197         0.896696
 H        -0.178969         0.932469        -0.661915
 H        -0.613836        -0.588174         0.290473
 H         0.433293         1.006904         0.948984
 H         1.883527        -2.053230        -1.704337
 H         0.884168        -0.619691        -2.275338
 H         2.774770         0.827410        -1.601008
 H         4.987461         0.574840         0.530434
 H         4.513994        -2.662865         1.020645
 H         5.239407        -1.501080         2.138495
 H         3.121739        -0.078007         2.225774
