19
Iteration:  3962charge 0 multiplicity 1
 C         0.410979         0.418497         0.223878
 C         1.477482        -0.520517        -0.271733
 C         1.645462        -1.387799        -1.516668
 C         2.542767        -0.173962        -1.156518
 O         3.910750        -0.440356        -0.802251
 C         4.176444        -0.359218         0.526650
 C         4.468852        -1.668334         1.226866
 C         3.136528        -0.904230         1.381805
 O         1.862738        -1.403232         0.869508
 H        -0.205929         0.948777        -0.491770
 H        -0.549595        -0.052917         0.717360
 H         0.708155         1.185360         0.950071
 H         1.932960        -2.441493        -1.422576
 H         1.036106        -1.206887        -2.329774
 H         2.459181         0.685514        -1.845596
 H         4.755056         0.535066         0.991823
 H         4.605052        -2.494949         0.646973
 H         4.988253        -1.543510         2.121016
 H         3.029776        -0.397979         2.332139
