19
Iteration:  1257charge 0 multiplicity 1
 C         0.257255         0.188281         0.112344
 C         1.520003        -0.582756        -0.213897
 C         1.705003        -1.362032        -1.566170
 C         2.533925        -0.046577        -1.148630
 O         3.851612        -0.396499        -0.857916
 C         4.259913        -0.428682         0.468187
 C         4.340352        -1.757462         1.226153
 C         3.172871        -0.810273         1.505484
 O         1.956548        -1.207773         0.995983
 H         0.512620         0.887485         0.898619
 H        -0.268515         0.742453        -0.762997
 H        -0.404302        -0.751138         0.545150
 H         2.272136        -2.289866        -1.566774
 H         0.964145        -1.105582        -2.289818
 H         2.417936         0.794077        -1.815710
 H         4.948973         0.328287         0.750911
 H         4.226711        -2.632934         0.589781
 H         5.071656        -1.809804         2.040045
 H         3.291808        -0.314601         2.523589
