19
Iteration:  4807
 C         0.503556         0.382541         0.268112
 C         1.480140        -0.640519        -0.221459
 C         1.522511        -1.244388        -1.576428
 C         2.553555        -0.196581        -1.204115
 O         3.869513        -0.563073        -0.803456
 C         4.157540        -0.384241         0.526871
 C         4.409531        -1.555214         1.395941
 C         3.067844        -0.738071         1.414248
 O         2.013526        -1.478776         0.751055
 H         0.307070         1.229884        -0.514516
 H        -0.414507        -0.273379         0.565694
 H         0.941808         1.057122         0.988255
 H         1.823652        -2.326684        -1.776589
 H         0.877476        -0.869871        -2.378780
 H         2.542645         0.852650        -1.563552
 H         4.637710         0.494809         0.636295
 H         4.254862        -2.505810         0.843374
 H         5.113792        -1.713068         2.209112
 H         2.887866        -0.192307         2.308902
