19
Iteration:    32
 C         0.380957         0.311605         0.329922
 C         1.523611        -0.578592        -0.165695
 C         1.528256        -1.243439        -1.531840
 C         2.623628        -0.221209        -1.223216
 O         3.933268        -0.593285        -0.939948
 C         4.198628        -0.366854         0.399213
 C         4.406594        -1.443353         1.460868
 C         3.062681        -0.812976         1.405859
 O         2.010968        -1.481794         0.805918
 H         0.412067         0.481791         1.345403
 H         0.366041         1.383091        -0.226072
 H        -0.561504        -0.140697         0.194238
 H         1.909050        -2.261544        -1.586349
 H         0.798427        -1.030056        -2.304165
 H         2.433810         0.735307        -1.677477
 H         4.427172         0.640920         0.592575
 H         4.181250        -2.439562         1.039351
 H         5.018691        -1.396871         2.364330
 H         2.662328         0.050401         2.014845
