19
Iteration:  2020
 C         0.347290         0.381725         0.228848
 C         1.428300        -0.572773        -0.183358
 C         1.599090        -1.331909        -1.552582
 C         2.512511        -0.182148        -1.210790
 O         3.966592        -0.403122        -0.867362
 C         4.190440        -0.372424         0.504473
 C         4.443786        -1.648216         1.378955
 C         3.108555        -0.894927         1.482237
 O         1.970306        -1.460647         0.784989
 H         0.827609         1.324521         0.711682
 H        -0.099639         0.864244        -0.728424
 H        -0.524210        -0.000490         0.680161
 H         1.896298        -2.390406        -1.603388
 H         0.937779        -0.987387        -2.320181
 H         2.536647         0.735991        -1.820483
 H         4.820057         0.601928         0.928322
 H         4.464031        -2.570085         0.759487
 H         5.073667        -1.378455         2.288158
 H         2.956249        -0.363329         2.367024
