19
Iteration:  4519charge 0 multiplicity 1
 C         0.449452         0.383414         0.147359
 C         1.537590        -0.576664        -0.189602
 C         1.486239        -1.199367        -1.619315
 C         2.528090        -0.102801        -1.156605
 O         3.833390        -0.617494        -0.835918
 C         4.127442        -0.337628         0.545945
 C         4.478480        -1.597208         1.335602
 C         3.151632        -0.866572         1.498421
 O         2.040166        -1.482405         0.840840
 H         0.101444         0.935606        -0.737178
 H        -0.522813        -0.197325         0.343259
 H         0.620830         1.195602         0.985917
 H         1.917719        -2.188765        -1.786927
 H         0.620633        -1.195419        -2.184112
 H         2.496011         0.888145        -1.559174
 H         4.595465         0.661297         0.651631
 H         4.385457        -2.527025         0.768656
 H         5.360831        -1.600258         2.013656
 H         2.781754        -0.246121         2.405477
