19
Iteration:  1061charge 0 multiplicity 1
 C         0.205901         0.287134         0.165182
 C         1.476005        -0.577977        -0.234964
 C         1.571424        -1.249748        -1.656756
 C         2.521612        -0.117344        -1.202101
 O         3.880213        -0.546943        -0.880723
 C         4.216412        -0.408730         0.553504
 C         4.529292        -1.645522         1.420329
 C         3.194184        -0.799717         1.468872
 O         2.017263        -1.337561         0.873972
 H         0.474096         0.890177         1.008004
 H        -0.089776         0.865248        -0.712596
 H        -0.732377        -0.331348         0.508133
 H         2.043364        -2.237696        -1.704498
 H         0.639252        -1.121941        -2.215196
 H         2.593676         0.929136        -1.577056
 H         4.760490         0.422540         0.773463
 H         4.513801        -2.616205         0.919523
 H         5.276370        -1.635207         2.223472
 H         3.024165        -0.295165         2.432125
