19
Iteration:  2346
 C         0.324161         0.304612         0.030549
 C         1.469309        -0.638584        -0.187710
 C         1.682288        -1.361319        -1.508815
 C         2.544733        -0.136866        -1.121499
 O         3.866460        -0.390067        -0.842761
 C         4.218660        -0.366735         0.527620
 C         4.429384        -1.690819         1.209135
 C         3.169018        -0.859632         1.442673
 O         1.901645        -1.287488         1.003941
 H         0.479978         1.021749         0.874133
 H         0.184555         0.990312        -0.828452
 H        -0.608735        -0.167882         0.135705
 H         2.345817        -2.252762        -1.493518
 H         0.807375        -1.307826        -2.122622
 H         2.415042         0.768658        -1.736079
 H         4.845192         0.361018         0.796700
 H         4.132013        -2.478556         0.538494
 H         5.282656        -2.006108         1.797528
 H         3.210342        -0.514687         2.482934
