19
Iteration:  2255charge 0 multiplicity 1
 C         0.418612         0.262015         0.367974
 C         1.464451        -0.615077        -0.263230
 C         1.611937        -1.138534        -1.668182
 C         2.601504        -0.115134        -1.148082
 O         3.887157        -0.618741        -0.894329
 C         4.188772        -0.416344         0.456420
 C         4.335472        -1.517072         1.536619
 C         3.056850        -0.733816         1.336044
 O         2.036431        -1.492418         0.762250
 H         1.001608         0.865599         1.001251
 H        -0.197389         0.926865        -0.297940
 H        -0.299554        -0.493062         0.913464
 H         2.160545        -2.045735        -1.517804
 H         0.749987        -1.106610        -2.365904
 H         2.485157         0.909571        -1.605045
 H         4.749121         0.543015         0.630375
 H         4.119815        -2.549460         1.113812
 H         5.120111        -1.380389         2.340479
 H         2.642853        -0.037792         2.198769
