19
Iteration:  1475charge 0 multiplicity 1
 C         0.339192         0.390805         0.150800
 C         1.467675        -0.611962        -0.249272
 C         1.571936        -1.327613        -1.561699
 C         2.513155        -0.181220        -1.236745
 O         3.865193        -0.436746        -0.775604
 C         4.153445        -0.338479         0.569684
 C         4.472181        -1.678230         1.269889
 C         3.195539        -0.919191         1.486726
 O         2.018561        -1.366229         0.868122
 H         0.514638         1.112464         0.905269
 H         0.078065         0.967884        -0.874730
 H        -0.503556        -0.215332         0.571266
 H         1.880292        -2.395166        -1.542966
 H         0.768206        -1.064960        -2.272668
 H         2.436903         0.811809        -1.743602
 H         4.730295         0.639666         0.833710
 H         4.679972        -2.473903         0.545849
 H         5.130921        -1.621799         2.155713
 H         3.025476        -0.350306         2.510868
