19
Iteration:  1554
 C         0.168112         0.185528         0.028318
 C         1.463685        -0.583798        -0.199027
 C         1.683581        -1.223715        -1.601972
 C         2.538286        -0.092940        -1.137704
 O         3.873235        -0.446697        -0.839680
 C         4.282584        -0.392206         0.469970
 C         4.392893        -1.814744         1.285032
 C         3.266953        -0.793917         1.465800
 O         1.965616        -1.233246         1.040862
 H         0.463392         0.940448         0.727471
 H        -0.192763         0.688525        -0.885423
 H        -0.750826        -0.390523         0.446530
 H         2.051261        -2.194882        -1.805403
 H         0.849806        -1.080014        -2.276205
 H         2.423122         0.971611        -1.499121
 H         5.014719         0.278121         0.700886
 H         4.248357        -2.777213         0.816160
 H         5.191314        -1.979882         1.974481
 H         3.166901        -0.404134         2.582092
