19
Iteration:  4465
 C         0.391299         0.418235         0.242759
 C         1.446131        -0.543222        -0.237112
 C         1.681136        -1.348079        -1.443963
 C         2.525649        -0.177900        -1.240301
 O         3.900651        -0.440014        -0.859482
 C         4.128487        -0.354580         0.539640
 C         4.433787        -1.654980         1.245761
 C         3.106527        -0.961748         1.435474
 O         1.956359        -1.359477         0.830158
 H        -0.128326         1.012323        -0.501260
 H        -0.361606        -0.159021         0.851601
 H         0.803618         1.151091         0.966940
 H         2.050639        -2.366587        -1.341809
 H         1.091712        -1.284131        -2.315326
 H         2.523318         0.656148        -1.897718
 H         4.709066         0.534341         0.774489
 H         4.377225        -2.535339         0.586745
 H         5.171349        -1.707087         2.067520
 H         2.930025        -0.466447         2.486551
