19
Iteration:  3709
 C         0.332723         0.345977         0.079983
 C         1.472536        -0.645200        -0.183853
 C         1.575903        -1.211351        -1.606251
 C         2.514834        -0.075815        -1.135205
 O         3.852381        -0.516975        -0.860483
 C         4.219265        -0.376438         0.561008
 C         4.382697        -1.694439         1.338876
 C         3.219039        -0.804058         1.483336
 O         2.045300        -1.420145         0.836377
 H         0.066708         0.753537        -0.916300
 H        -0.548939        -0.155253         0.595634
 H         0.580961         1.080782         0.863243
 H         1.985441        -2.150820        -1.671154
 H         0.662991        -0.827105        -1.992232
 H         2.503457         0.956252        -1.393793
 H         5.051678         0.426160         0.709681
 H         4.155388        -2.627938         0.736212
 H         5.075557        -1.986471         2.230814
 H         2.940754        -0.367099         2.484794
