19
Iteration:   395charge 0 multiplicity 1
 C         0.319031         0.304493         0.172082
 C         1.431887        -0.602224        -0.234349
 C         1.672546        -1.288913        -1.531646
 C         2.556671        -0.267474        -1.244428
 O         3.882385        -0.396012        -0.901452
 C         4.199845        -0.400415         0.503345
 C         4.398916        -1.645509         1.301946
 C         3.139610        -0.872264         1.499955
 O         1.969744        -1.285896         0.932340
 H         0.684759         1.185581         0.730629
 H        -0.389917         0.575029        -0.511819
 H        -0.192950        -0.373421         0.964734
 H         2.125168        -2.316361        -1.483427
 H         0.950056        -0.912006        -2.284956
 H         2.321755         0.660526        -1.838580
 H         5.040225         0.384482         0.695467
 H         4.449955        -2.667245         0.817504
 H         5.137436        -1.537514         2.134510
 H         3.052580        -0.242426         2.395823
