19
Iteration:  1324charge 0 multiplicity 1
 C         0.312843         0.408136         0.047887
 C         1.467937        -0.621394        -0.214796
 C         1.529292        -1.369414        -1.505622
 C         2.529526        -0.095281        -1.129825
 O         3.917187        -0.436101        -0.847671
 C         4.167746        -0.339034         0.560272
 C         4.457791        -1.640515         1.197233
 C         3.181440        -0.895360         1.540800
 O         2.039345        -1.435269         0.911260
 H         0.717328         1.154123         0.726048
 H        -0.057632         0.781675        -0.925476
 H        -0.644629        -0.292400         0.362702
 H         2.200397        -2.221326        -1.517074
 H         0.650753        -1.209493        -2.145239
 H         2.430819         0.904031        -1.666790
 H         4.625597         0.547726         0.811696
 H         4.227033        -2.500117         0.557945
 H         5.241111        -1.638185         1.955003
 H         2.988206        -0.376890         2.595895
