19
Iteration:  4091charge 0 multiplicity 1
 C         0.398954         0.411873         0.284359
 C         1.422875        -0.615023        -0.244585
 C         1.586072        -1.238862        -1.583915
 C         2.545488        -0.132242        -1.153309
 O         3.846678        -0.579598        -0.862512
 C         4.178041        -0.349681         0.541878
 C         4.453980        -1.629705         1.380302
 C         3.129353        -0.824000         1.465013
 O         2.006749        -1.473168         0.731244
 H        -0.059896         0.847800        -0.615756
 H        -0.381822        -0.145382         0.838567
 H         0.878672         1.244328         0.864444
 H         2.003002        -2.251639        -1.506132
 H         1.090798        -0.805272        -2.385008
 H         2.594979         0.793256        -1.728878
 H         4.774478         0.636714         0.671557
 H         4.476491        -2.554308         0.860498
 H         5.148940        -1.627744         2.226471
 H         2.677439        -0.197200         2.312719
