19
Iteration:  4620charge 0 multiplicity 1
 C         0.354625         0.411454         0.155705
 C         1.403165        -0.605805        -0.129228
 C         1.619184        -1.206084        -1.638625
 C         2.577705        -0.152863        -1.063072
 O         3.872305        -0.619335        -0.895869
 C         4.231510        -0.378539         0.452310
 C         4.479386        -1.531048         1.343683
 C         3.198724        -0.892759         1.455155
 O         1.930624        -1.445288         0.876453
 H        -0.094739         1.017458        -0.723410
 H        -0.620337        -0.114924         0.513146
 H         0.512383         1.259501         0.796958
 H         1.852633        -2.263327        -1.633214
 H         0.800385        -0.984932        -2.430347
 H         2.350875         0.848948        -1.400279
 H         4.855777         0.416566         0.585465
 H         4.514917        -2.509884         0.835472
 H         5.174880        -1.342403         2.154541
 H         2.875980        -0.460359         2.420935
