19
Iteration:  2882
 C         0.295563         0.262853         0.175236
 C         1.463108        -0.561339        -0.252221
 C         1.630375        -1.322464        -1.498058
 C         2.613866        -0.250931        -1.269446
 O         3.887617        -0.412643        -0.914036
 C         4.200843        -0.392927         0.526490
 C         4.387614        -1.691518         1.237412
 C         3.176456        -0.837281         1.547445
 O         1.991057        -1.259227         0.982096
 H         0.213390         0.488274         1.250665
 H         0.287386         1.287380        -0.083147
 H        -0.644878        -0.111903        -0.196520
 H         1.799771        -2.497052        -1.482608
 H         0.888183        -1.026602        -2.325894
 H         2.471791         0.605676        -1.953054
 H         4.708008         0.472135         0.730892
 H         4.265176        -2.550708         0.656195
 H         5.132966        -1.641249         2.008946
 H         3.048251        -0.174804         2.424932
