19
Iteration:  4492charge 0 multiplicity 1
 C         0.495134         0.436253         0.141546
 C         1.403091        -0.688988        -0.189469
 C         1.575470        -1.229678        -1.565662
 C         2.514633        -0.210559        -1.109000
 O         3.934923        -0.470445        -0.862667
 C         4.149086        -0.276132         0.543793
 C         4.460511        -1.585082         1.229658
 C         3.129005        -0.956989         1.446801
 O         1.904961        -1.460027         0.957617
 H         0.129736         0.898834        -0.799387
 H        -0.426950         0.090220         0.551136
 H         0.867157         1.201020         0.799397
 H         1.784039        -2.331448        -1.766401
 H         0.850073        -1.090143        -2.452433
 H         2.525172         0.742655        -1.764306
 H         4.745430         0.641000         0.698090
 H         4.621806        -2.439694         0.582410
 H         5.223297        -1.540749         1.996607
 H         2.953294        -0.581147         2.391312
