19
Iteration:  1520charge 0 multiplicity 1
 C         0.257645         0.237553         0.103179
 C         1.540556        -0.584575        -0.167090
 C         1.713508        -1.328076        -1.450649
 C         2.593102        -0.137197        -1.158878
 O         3.915332        -0.377807        -0.958850
 C         4.176474        -0.333652         0.544111
 C         4.308025        -1.795513         1.237040
 C         3.183869        -0.873033         1.419107
 O         1.952132        -1.267118         0.962822
 H         0.488935         0.891890         0.891501
 H         0.084028         0.974832        -0.785881
 H        -0.638298        -0.348027         0.506977
 H         2.235091        -2.270711        -1.318480
 H         0.896590        -1.182013        -2.125210
 H         2.457561         0.894197        -1.594479
 H         4.736367         0.561740         0.767588
 H         3.986740        -2.483521         0.499080
 H         5.074944        -1.920838         1.995983
 H         2.962223        -0.445235         2.496105
