19
Iteration:   938
 C         0.314312         0.266251         0.067928
 C         1.515399        -0.634565        -0.126114
 C         1.608008        -1.329502        -1.461966
 C         2.514787        -0.129802        -1.081691
 O         4.006202        -0.405340        -0.893592
 C         4.174070        -0.344198         0.508336
 C         4.353282        -1.618564         1.148823
 C         3.098039        -0.885003         1.462451
 O         1.972047        -1.353174         0.957823
 H         0.761484         1.308863         0.174040
 H        -0.190076         0.512797        -0.989220
 H        -0.393792         0.035689         0.967947
 H         2.260979        -2.244258        -1.480347
 H         0.858052        -1.323789        -2.315962
 H         2.442894         0.795359        -1.674903
 H         4.684722         0.574832         0.879310
 H         4.174008        -2.582539         0.601428
 H         5.242209        -1.795274         1.839209
 H         3.012151        -0.463969         2.483032
