19
Iteration:  2460charge 0 multiplicity 1
 C         0.316020         0.341158         0.162892
 C         1.447763        -0.617428        -0.200515
 C         1.568189        -1.142892        -1.666853
 C         2.551032        -0.199388        -1.137971
 O         3.805969        -0.702482        -0.859152
 C         4.231520        -0.346052         0.556827
 C         4.552363        -1.456021         1.375391
 C         3.164203        -0.882733         1.441057
 O         1.969822        -1.440597         0.862464
 H         0.578025         1.094063         0.987132
 H         0.102300         1.101016        -0.620083
 H        -0.575986        -0.361458         0.359476
 H         1.904804        -2.216784        -1.762356
 H         0.919339        -0.658040        -2.378782
 H         2.574324         0.884927        -1.404237
 H         4.808024         0.735989         0.699118
 H         4.723312        -2.452690         0.881548
 H         5.195468        -1.421053         2.292636
 H         2.819644        -0.217037         2.241416
