19
Iteration:  4069charge 0 multiplicity 1
 C         0.353658         0.260557         0.306801
 C         1.556084        -0.551192        -0.247619
 C         1.432293        -1.137192        -1.610540
 C         2.628558        -0.174540        -1.207905
 O         3.929089        -0.640971        -0.847289
 C         4.197004        -0.366786         0.511992
 C         4.326406        -1.592467         1.378447
 C         3.072059        -0.779776         1.433513
 O         2.095453        -1.397371         0.781830
 H        -0.109043         0.849694        -0.511762
 H        -0.264992        -0.641381         0.527736
 H         0.669848         0.936773         1.154430
 H         1.854829        -2.162617        -1.526233
 H         0.635417        -0.720045        -2.131162
 H         2.725496         0.779605        -1.723222
 H         4.855055         0.578822         0.685841
 H         4.232474        -2.536426         0.880400
 H         5.023280        -1.515209         2.229260
 H         2.636454        -0.289499         2.398748
