19
Iteration:  1265charge 0 multiplicity 1
 C         0.315887         0.153187         0.149283
 C         1.483603        -0.591208        -0.274538
 C         1.723712        -1.293858        -1.550959
 C         2.511181        -0.107334        -1.200502
 O         3.854738        -0.370464        -0.871509
 C         4.234669        -0.465966         0.533255
 C         4.414453        -1.775546         1.239633
 C         3.178669        -0.817702         1.512527
 O         1.910199        -1.162944         0.984666
 H         0.425432         0.914441         0.890022
 H        -0.206207         0.712463        -0.696480
 H        -0.375731        -0.490492         0.605858
 H         2.221962        -2.249877        -1.492370
 H         0.930299        -1.297340        -2.308596
 H         2.293017         0.710691        -1.805573
 H         4.887572         0.449979         0.855572
 H         4.282447        -2.667405         0.618875
 H         5.265192        -1.866156         1.914228
 H         3.127151        -0.313969         2.426049
