19
Iteration:  2514
 C         0.480382         0.297831         0.340292
 C         1.484061        -0.673528        -0.250967
 C         1.482744        -1.254856        -1.608984
 C         2.587662        -0.272857        -1.297220
 O         3.949201        -0.542458        -0.885113
 C         4.161950        -0.304489         0.491708
 C         4.321124        -1.523239         1.422729
 C         3.102822        -0.692280         1.457400
 O         2.025941        -1.491668         0.786396
 H         0.619964         0.098280         1.446000
 H         0.664463         1.354487         0.187866
 H        -0.607011         0.387934         0.088988
 H         1.717264        -2.344636        -1.638316
 H         0.720059        -0.777462        -2.232189
 H         2.657749         0.685335        -1.852008
 H         4.557284         0.735368         0.935689
 H         4.246520        -2.587636         1.105523
 H         5.000168        -1.372103         2.319251
 H         2.814914         0.010600         2.267079
