19
Iteration:  1172
 C         0.411578         0.336987         0.268340
 C         1.478745        -0.618478        -0.204731
 C         1.637293        -1.216288        -1.594731
 C         2.608384        -0.241268        -1.184931
 O         3.869686        -0.582657        -0.791783
 C         4.128932        -0.270048         0.504256
 C         4.422043        -1.517446         1.250276
 C         3.136031        -0.802355         1.433799
 O         1.959545        -1.482328         0.811522
 H         0.538669         0.817940         1.255013
 H         0.091741         1.046508        -0.415925
 H        -0.370038        -0.362052         0.607837
 H         1.835078        -2.279332        -1.640661
 H         0.915172        -1.045488        -2.370841
 H         2.655853         0.838754        -1.592208
 H         4.545132         0.690137         0.688434
 H         4.224671        -2.487551         0.813556
 H         5.155261        -1.424084         2.041095
 H         2.705764        -0.241164         2.346529
