19
Iteration:  4897
 C         0.315953         0.366324         0.098850
 C         1.445175        -0.576926        -0.230412
 C         1.575498        -1.090467        -1.578385
 C         2.597684        -0.126388        -1.115647
 O         3.826873        -0.705699        -0.818613
 C         4.189774        -0.428188         0.473751
 C         4.445336        -1.600719         1.331376
 C         3.188864        -0.790394         1.506162
 O         2.044605        -1.426171         0.867388
 H        -0.071723         0.764672        -0.870965
 H        -0.468031        -0.354346         0.440079
 H         0.641295         1.096370         0.855601
 H         1.973030        -2.126388        -1.575000
 H         0.924329        -0.890713        -2.420755
 H         2.543104         0.987076        -1.327626
 H         4.653264         0.491225         0.660668
 H         4.209508        -2.536370         0.796351
 H         5.176565        -1.562442         2.175166
 H         2.816610        -0.232484         2.378544
