19
Iteration:   521charge 0 multiplicity 1
 C         0.339250         0.259278         0.211446
 C         1.477887        -0.616884        -0.158896
 C         1.571407        -1.182487        -1.545005
 C         2.549828        -0.145029        -1.199317
 O         3.916326        -0.567245        -0.885258
 C         4.234683        -0.385083         0.423225
 C         4.360930        -1.529545         1.368247
 C         3.118334        -0.833364         1.494922
 O         2.046413        -1.436880         0.826237
 H         0.658627         0.986332         0.937404
 H        -0.111510         0.742343        -0.819527
 H        -0.508841        -0.179865         0.666041
 H         2.047474        -2.186548        -1.605004
 H         0.759867        -0.994079        -2.281615
 H         2.540383         0.804040        -1.715318
 H         4.702349         0.548853         0.826913
 H         4.332607        -2.500255         0.847424
 H         4.889844        -1.375998         2.314042
 H         2.901216        -0.015329         2.354798
