19
Iteration:  2488charge 0 multiplicity 1
 C         0.424957         0.335505         0.287512
 C         1.519065        -0.565154        -0.217754
 C         1.552028        -1.222675        -1.553413
 C         2.574441        -0.211812        -1.236704
 O         3.862270        -0.674394        -0.899480
 C         4.160506        -0.319709         0.504419
 C         4.398173        -1.455714         1.406813
 C         3.067092        -0.820295         1.475644
 O         2.063388        -1.463437         0.711991
 H         0.527977         0.333506         1.379873
 H         0.298645         1.400500        -0.021411
 H        -0.534397        -0.071468         0.085734
 H         1.942255        -2.242398        -1.395883
 H         0.748981        -0.981610        -2.280223
 H         2.597951         0.849501        -1.464223
 H         4.595857         0.551889         0.733361
 H         4.425754        -2.510637         1.146271
 H         4.992221        -1.272678         2.264233
 H         2.681736        -0.169344         2.259928
