19
Iteration:   607
 C         0.411292         0.376975         0.298182
 C         1.453096        -0.626559        -0.218467
 C         1.558974        -1.233263        -1.670681
 C         2.545492        -0.175408        -1.236117
 O         3.873150        -0.612948        -0.876170
 C         4.083772        -0.297733         0.533649
 C         4.457898        -1.471789         1.403901
 C         3.137585        -0.866817         1.465675
 O         2.024352        -1.502016         0.789145
 H         0.708670         1.030298         1.181388
 H         0.156148         1.062644        -0.511663
 H        -0.447858        -0.215338         0.530277
 H         1.891365        -2.305428        -1.613765
 H         0.748787        -0.917360        -2.380263
 H         2.594166         0.834059        -1.620809
 H         4.845445         0.589221         0.763813
 H         4.788062        -2.460668         1.038231
 H         5.043573        -1.295645         2.330738
 H         2.969351        -0.383540         2.471912
