19
Iteration:  4637charge 0 multiplicity 1
 C         0.389365         0.404022         0.130361
 C         1.500387        -0.607687        -0.210268
 C         1.531746        -1.243201        -1.519879
 C         2.549582        -0.207465        -1.183871
 O         3.913521        -0.521520        -0.860370
 C         4.147226        -0.339419         0.551702
 C         4.542264        -1.609523         1.233824
 C         3.100853        -0.946384         1.431557
 O         1.898497        -1.414272         0.966897
 H         0.073773         0.947564        -0.751179
 H        -0.550408         0.022553         0.459782
 H         0.861238         1.280994         0.725106
 H         2.004134        -2.249000        -1.671924
 H         0.877026        -0.957367        -2.245540
 H         2.636549         0.763103        -1.702357
 H         4.419936         0.789693         0.880047
 H         4.745415        -2.530085         0.640446
 H         5.216900        -1.610106         2.117536
 H         3.019825        -0.323798         2.366246
