19
Iteration:  4183charge 0 multiplicity 1
 C         0.279903         0.246600         0.225256
 C         1.509913        -0.530852        -0.231875
 C         1.592672        -1.245688        -1.531945
 C         2.604532        -0.050017        -1.173610
 O         3.920332        -0.508186        -0.904595
 C         4.227157        -0.466509         0.511605
 C         4.350616        -1.708615         1.340499
 C         3.142703        -0.846381         1.429541
 O         1.989017        -1.297864         0.843121
 H         0.045781         1.132088        -0.459308
 H        -0.692612        -0.492953         0.225408
 H         0.198211         0.624886         1.281613
 H         2.152641        -2.233948        -1.479304
 H         0.777119        -1.156422        -2.238409
 H         2.492559         0.936231        -1.636466
 H         4.840836         0.414137         0.645187
 H         4.422576        -2.772248         1.173833
 H         5.101862        -1.628663         2.173147
 H         3.063024        -0.131698         2.178099
