19
Iteration:  2832charge 0 multiplicity 1
 C         0.338246         0.396011         0.034441
 C         1.542466        -0.571594        -0.104497
 C         1.602361        -1.245805        -1.509548
 C         2.524499        -0.137794        -1.159326
 O         3.840370        -0.632525        -0.885599
 C         4.146742        -0.304444         0.451955
 C         4.479700        -1.538789         1.312742
 C         3.207058        -0.855000         1.479687
 O         1.987313        -1.502571         0.947478
 H        -0.227665         0.432831         1.027624
 H         0.442813         1.518669        -0.027040
 H        -0.569694         0.038791        -0.543440
 H         1.927337        -2.248256        -1.579876
 H         0.871291        -1.068663        -2.187504
 H         2.426274         0.784040        -1.710144
 H         4.771899         0.697477         0.488146
 H         4.264339        -2.420923         0.692280
 H         5.287832        -1.419079         2.047330
 H         2.912183        -0.500099         2.461198
