19
Iteration:  2674charge 0 multiplicity 1
 C         0.269013         0.339358         0.119609
 C         1.441505        -0.579430        -0.189074
 C         1.606677        -1.332465        -1.514526
 C         2.508903        -0.243405        -1.204216
 O         3.865896        -0.531811        -0.849673
 C         4.280023        -0.336054         0.490752
 C         4.478191        -1.614151         1.282141
 C         3.180827        -0.784772         1.462119
 O         1.979451        -1.294236         0.941456
 H        -0.575572        -0.265643        -0.238571
 H         0.231587         0.322794         1.206217
 H         0.544604         1.245024        -0.370311
 H         1.889606        -2.422604        -1.436971
 H         0.735122        -1.096035        -2.291338
 H         2.203800         0.618921        -1.888353
 H         4.852054         0.443443         0.823602
 H         4.483979        -2.585646         0.702243
 H         5.407626        -1.634292         1.979536
 H         2.958241        -0.219398         2.406717
