19
Iteration:  4835
 C         0.566981         0.502600         0.343902
 C         1.457982        -0.619816        -0.231164
 C         1.599849        -1.319155        -1.547802
 C         2.591166        -0.254605        -1.309323
 O         3.914115        -0.498675        -0.881509
 C         4.090700        -0.302589         0.524147
 C         4.335710        -1.543734         1.365731
 C         3.002324        -0.881261         1.464710
 O         1.978981        -1.519337         0.754672
 H         0.150144         1.250644        -0.289028
 H        -0.274486         0.051852         0.904208
 H         1.093299         1.199281         1.087410
 H         1.956146        -2.377449        -1.522365
 H         1.005934        -1.076070        -2.373582
 H         2.512500         0.699719        -1.778396
 H         4.731473         0.702070         0.673038
 H         4.489737        -2.490004         0.896206
 H         4.869799        -1.485584         2.291597
 H         2.873570        -0.597972         2.526895
