19
Iteration:  1208charge 0 multiplicity 1
 C         0.176783         0.226826         0.073280
 C         1.494696        -0.571509        -0.170776
 C         1.586373        -1.191508        -1.558498
 C         2.558148        -0.135026        -1.185321
 O         3.849543        -0.520711        -0.878578
 C         4.253997        -0.368381         0.486443
 C         4.489350        -1.656273         1.318580
 C         3.235339        -0.902458         1.471682
 O         1.973961        -1.307720         0.936057
 H         0.297726         0.892243         1.009800
 H        -0.068893         0.842043        -0.842328
 H        -0.567662        -0.464478         0.040591
 H         2.185753        -2.131651        -1.565744
 H         0.645012        -1.016890        -2.127230
 H         2.402422         0.963569        -1.464633
 H         4.979820         0.559546         0.755170
 H         4.504602        -2.735138         1.094218
 H         5.131172        -1.435958         2.187961
 H         3.215730        -0.463932         2.485511
