19
Iteration:  4386charge 0 multiplicity 1
 C         0.235160         0.163936         0.128773
 C         1.551077        -0.567511        -0.178228
 C         1.594082        -1.095749        -1.596301
 C         2.574682         0.008663        -1.123836
 O         3.766391        -0.727202        -0.847460
 C         4.165234        -0.447607         0.469303
 C         4.515110        -1.621213         1.361311
 C         3.193255        -0.816215         1.480571
 O         1.995456        -1.331029         0.855008
 H         0.050798         0.843552        -0.703179
 H        -0.666676        -0.396006         0.316985
 H         0.555306         0.832728         1.051992
 H         2.019437        -2.081847        -1.606115
 H         0.805960        -0.614179        -2.183956
 H         2.941449         0.965708        -1.590565
 H         4.735219         0.580630         0.520624
 H         4.426080        -2.529371         0.802013
 H         5.315657        -1.435237         2.060922
 H         3.117037        -0.161831         2.431652
