19
Iteration:   319charge 0 multiplicity 1
 C         0.460229         0.260455         0.280884
 C         1.511493        -0.628283        -0.248927
 C         1.462920        -1.193360        -1.651711
 C         2.560017        -0.142140        -1.134320
 O         3.837033        -0.705058        -0.886246
 C         4.221534        -0.369073         0.478098
 C         4.499446        -1.383807         1.424775
 C         3.060901        -0.830121         1.411970
 O         1.948079        -1.454991         0.831906
 H         0.897164         0.836843         1.150907
 H         0.189678         1.007781        -0.398441
 H        -0.457110        -0.343801         0.611905
 H         1.882779        -2.208891        -1.663517
 H         0.937450        -0.693676        -2.487888
 H         2.600348         0.876595        -1.599049
 H         4.624529         0.732257         0.553582
 H         4.931851        -2.348140         1.109276
 H         5.067233        -1.072047         2.336101
 H         2.877405        -0.231488         2.241378
