19
Iteration:  2926charge 0 multiplicity 1
 C         0.248164         0.266562         0.124984
 C         1.427475        -0.620381        -0.158084
 C         1.662996        -1.263031        -1.530474
 C         2.494141        -0.088510        -1.123793
 O         3.891514        -0.489500        -0.899470
 C         4.236680        -0.421612         0.403274
 C         4.404672        -1.709802         1.372802
 C         3.223825        -0.770196         1.440576
 O         2.004704        -1.330878         0.925218
 H         0.489114         1.138798         0.833443
 H         0.063018         0.834124        -0.751854
 H        -0.666201        -0.187233         0.468379
 H         2.137418        -2.337145        -1.690129
 H         1.034175        -1.018503        -2.432210
 H         2.423700         0.814336        -1.737873
 H         4.877160         0.349611         0.775992
 H         4.173147        -2.632547         0.920469
 H         5.149733        -1.676484         2.134773
 H         3.042879        -0.300471         2.437172
