19
Iteration:  1331
 C         0.314866         0.360008         0.043584
 C         1.462068        -0.617059        -0.191752
 C         1.571862        -1.313877        -1.560770
 C         2.522118        -0.118950        -1.192610
 O         3.836844        -0.441010        -0.883503
 C         4.188132        -0.333033         0.551135
 C         4.476349        -1.650982         1.281048
 C         3.129337        -0.920577         1.561220
 O         2.046814        -1.416768         0.941583
 H         0.661868         1.042473         0.800528
 H         0.093285         1.077076        -0.823741
 H        -0.382567        -0.141224         0.546747
 H         2.128224        -2.259732        -1.665885
 H         0.690301        -1.152372        -2.171122
 H         2.422203         0.785830        -1.696295
 H         4.811759         0.605191         0.836181
 H         4.515905        -2.517047         0.610166
 H         5.356016        -1.568242         1.942945
 H         3.022392        -0.442762         2.511430
