19
Iteration:  3307
 C         0.362430         0.307897         0.332839
 C         1.435790        -0.645433        -0.194961
 C         1.616986        -1.123027        -1.683648
 C         2.582224        -0.150716        -1.148116
 O         3.880441        -0.624121        -0.910967
 C         4.260631        -0.412830         0.445385
 C         4.399146        -1.515062         1.371865
 C         3.066937        -0.764273         1.438059
 O         1.995137        -1.471108         0.877390
 H         0.423201         1.043698        -0.481471
 H        -0.795634        -0.171342         0.171474
 H         0.553887         0.440818         1.436436
 H         2.009897        -2.214363        -1.722207
 H         0.964903        -0.780879        -2.468893
 H         2.622365         0.892288        -1.463980
 H         4.742377         0.469373         0.649488
 H         4.216345        -2.562497         1.059099
 H         5.170022        -1.372539         2.072396
 H         2.832324        -0.014115         2.264535
