19
Iteration:  2254
 C         0.428915         0.259283         0.366715
 C         1.462836        -0.619259        -0.257259
 C         1.609377        -1.141134        -1.676962
 C         2.609311        -0.105963        -1.146484
 O         3.883071        -0.621906        -0.905723
 C         4.182077        -0.405104         0.460631
 C         4.335865        -1.521485         1.544265
 C         3.047761        -0.739250         1.332095
 O         2.036982        -1.487095         0.765331
 H         1.012760         0.900860         1.009913
 H        -0.183941         0.910178        -0.272207
 H        -0.273540        -0.493989         0.926028
 H         2.147916        -2.064325        -1.515197
 H         0.751810        -1.112804        -2.368261
 H         2.479159         0.885817        -1.589473
 H         4.792929         0.584410         0.637092
 H         4.149766        -2.533249         1.162667
 H         5.100191        -1.404652         2.318933
 H         2.628644        -0.087000         2.169118
