19
Iteration:  4571
 C         0.314628         0.128022         0.316926
 C         1.501575        -0.473513        -0.208619
 C         1.477877        -1.069680        -1.661838
 C         2.654539        -0.157138        -1.227602
 O         3.944238        -0.714714        -0.942028
 C         4.272160        -0.473880         0.427379
 C         4.321429        -1.548872         1.450870
 C         3.110292        -0.697168         1.517605
 O         2.027357        -1.375790         0.850213
 H        -0.154975         0.917030        -0.145842
 H        -0.397734        -0.596356         0.564137
 H         0.711689         0.626438         1.281650
 H         1.672930        -2.081209        -1.811477
 H         0.945570        -0.702380        -2.522277
 H         2.533543         0.841443        -1.671416
 H         4.836451         0.550393         0.471124
 H         4.147381        -2.528378         1.071714
 H         4.973005        -1.507046         2.317397
 H         2.801424         0.001879         2.251208
