19
Iteration:  3300charge 0 multiplicity 1
 C         0.366993         0.252492         0.334925
 C         1.457201        -0.581495        -0.149964
 C         1.657527        -1.169706        -1.652645
 C         2.579024        -0.163900        -1.166068
 O         3.866633        -0.597603        -0.898863
 C         4.232707        -0.448362         0.435496
 C         4.376349        -1.521863         1.403806
 C         3.050005        -0.777293         1.420530
 O         1.999480        -1.445257         0.812829
 H         0.429683         1.278047        -0.134096
 H        -0.578128        -0.021613         0.198988
 H         0.532698         0.421928         1.397786
 H         1.945059        -2.156035        -1.754090
 H         0.990643        -0.795937        -2.394687
 H         2.436462         0.848249        -1.525421
 H         4.870052         0.481592         0.455365
 H         4.350931        -2.604809         1.132517
 H         5.226655        -1.303395         2.113146
 H         2.737577         0.022373         2.089558
