19
Iteration:  1917
 C         0.353509         0.260704         0.170485
 C         1.569060        -0.591851        -0.187714
 C         1.465828        -1.114314        -1.676721
 C         2.580198        -0.153190        -1.158000
 O         3.850361        -0.646257        -0.825214
 C         4.174464        -0.354443         0.505257
 C         4.453406        -1.519659         1.371849
 C         3.119345        -0.815065         1.490068
 O         2.051116        -1.449006         0.856624
 H         0.392077         0.888209         0.980297
 H         0.103196         0.836567        -0.666404
 H        -0.498564        -0.453389         0.408830
 H         1.871984        -2.156640        -1.717835
 H         0.707471        -0.701069        -2.362806
 H         2.782303         0.771552        -1.640708
 H         4.701584         0.530675         0.632958
 H         4.367242        -2.462906         0.877974
 H         5.192645        -1.524854         2.147222
 H         2.807948        -0.183343         2.376290
