19
Iteration:  1751
 C         0.221913         0.249040         0.085499
 C         1.367279        -0.618337        -0.213590
 C         1.626349        -1.213456        -1.586530
 C         2.532582        -0.039371        -1.160616
 O         3.889923        -0.465118        -0.864727
 C         4.338810        -0.479736         0.517503
 C         4.391165        -1.713413         1.351465
 C         3.224445        -0.751968         1.564287
 O         2.028017        -1.360035         0.880700
 H         0.396504         0.900891         0.899628
 H        -0.119853         0.795375        -0.772524
 H        -0.677746        -0.489871         0.473821
 H         2.040018        -2.232242        -1.554961
 H         0.841884        -1.014545        -2.363261
 H         2.313695         0.868135        -1.777288
 H         5.083260         0.233487         0.730454
 H         4.171582        -2.659612         0.807152
 H         5.364570        -1.806652         1.896951
 H         2.910761        -0.008109         2.430940
