19
Iteration:  3541charge 0 multiplicity 1
 C         0.467298         0.247301         0.299253
 C         1.541731        -0.562977        -0.254275
 C         1.439353        -1.214176        -1.621109
 C         2.652554        -0.125851        -1.197404
 O         3.924824        -0.564717        -0.899392
 C         4.144886        -0.422926         0.536434
 C         4.368586        -1.553228         1.428998
 C         3.053976        -0.764303         1.450140
 O         2.032072        -1.464715         0.730366
 H        -0.295087         0.741725        -0.499823
 H        -0.370187        -0.126385         0.929426
 H         0.985105         1.015074         1.027349
 H         1.718565        -2.262985        -1.555108
 H         0.572304        -0.688578        -2.155845
 H         2.467999         0.881641        -1.722114
 H         4.703033         0.409717         0.896984
 H         4.478260        -2.577826         1.214254
 H         5.061779        -1.334321         2.224262
 H         2.791560        -0.267208         2.346904
