19
Iteration:  4531
 C         0.336877         0.352375         0.222969
 C         1.481051        -0.551095        -0.210327
 C         1.538123        -1.173960        -1.588081
 C         2.538878        -0.104543        -1.145652
 O         3.836500        -0.669928        -0.860412
 C         4.203018        -0.391337         0.461460
 C         4.435637        -1.551390         1.391533
 C         3.119999        -0.852940         1.460985
 O         2.062419        -1.446006         0.783711
 H         0.127582         1.033537        -0.652648
 H        -0.491269        -0.363457         0.597756
 H         0.627943         0.925355         1.174586
 H         2.095092        -2.147701        -1.441039
 H         0.930236        -0.823943        -2.401239
 H         2.562608         0.816472        -1.693442
 H         4.853150         0.423200         0.690200
 H         4.401572        -2.517616         0.859218
 H         5.179968        -1.393949         2.234186
 H         2.923098        -0.256874         2.458879
