19
Iteration:  4507
 C         0.419484         0.385685         0.085169
 C         1.536512        -0.699792        -0.173590
 C         1.506212        -1.209540        -1.552920
 C         2.569333        -0.168701        -1.217799
 O         3.830544        -0.532429        -0.843218
 C         4.124906        -0.322698         0.530184
 C         4.483808        -1.578722         1.256606
 C         3.135226        -0.908042         1.532546
 O         1.985318        -1.461878         0.880246
 H         0.374817         0.950909        -0.824643
 H        -0.534328         0.086299         0.582062
 H         1.002784         1.140003         0.840608
 H         1.868503        -2.157774        -1.716659
 H         0.761819        -0.683448        -2.028391
 H         2.448706         0.884611        -1.403487
 H         4.565462         0.688685         0.839942
 H         4.429901        -2.467532         0.633472
 H         5.102161        -1.564894         2.144513
 H         3.056000        -0.384621         2.534960
