19
Iteration:   887
 C         0.264158         0.269289         0.249335
 C         1.448686        -0.621870        -0.264853
 C         1.580782        -1.189442        -1.519995
 C         2.579215        -0.148488        -1.236391
 O         3.920966        -0.602378        -0.892436
 C         4.191795        -0.350806         0.513054
 C         4.456222        -1.551959         1.447208
 C         3.139474        -0.777057         1.479727
 O         2.030796        -1.422623         0.748198
 H         0.611306         0.849169         1.083838
 H        -0.154153         0.944244        -0.420706
 H        -0.511167        -0.486949         0.577578
 H         1.816608        -2.290740        -1.578134
 H         0.769461        -0.858078        -2.239768
 H         2.511905         0.923645        -1.599092
 H         4.707542         0.517332         0.682880
 H         4.353078        -2.508909         0.852913
 H         5.236848        -1.532699         2.290472
 H         2.949340        -0.144263         2.352453
