19
Iteration:   378charge 0 multiplicity 1
 C         0.307871         0.318465         0.235781
 C         1.496468        -0.585632        -0.207548
 C         1.533972        -1.361533        -1.576611
 C         2.576589        -0.104750        -1.188086
 O         3.976404        -0.499816        -0.880369
 C         4.205981        -0.341564         0.489183
 C         4.435585        -1.624322         1.342236
 C         3.134538        -0.797880         1.436911
 O         1.954129        -1.423866         0.866833
 H         0.708637         1.314050         0.583235
 H        -0.396762         0.455889        -0.657493
 H        -0.320625         0.003231         1.041936
 H         1.966342        -2.325816        -1.422795
 H         0.796050        -1.261578        -2.355738
 H         2.537987         0.839349        -1.691927
 H         4.579049         0.628879         0.766839
 H         4.272908        -2.517848         0.786350
 H         5.139444        -1.588760         2.144564
 H         2.979243        -0.230964         2.355983
