19
Iteration:  3774charge 0 multiplicity 1
 C         0.457016         0.428504         0.303692
 C         1.536088        -0.580054        -0.272692
 C         1.520463        -1.269081        -1.702461
 C         2.582668        -0.233473        -1.204205
 O         3.893230        -0.552109        -0.744062
 C         4.094736        -0.294283         0.574838
 C         4.478549        -1.576210         1.306278
 C         3.098694        -0.881792         1.462087
 O         1.978633        -1.439164         0.762450
 H        -0.242096         0.757598        -0.492198
 H        -0.245985        -0.256565         0.930440
 H         0.969614         1.082046         1.044962
 H         1.466024        -2.270799        -1.790634
 H         0.810824        -0.911398        -2.434664
 H         2.427839         0.709136        -1.663983
 H         4.629896         0.648005         0.809123
 H         4.376323        -2.542658         0.766520
 H         5.231378        -1.561774         2.209856
 H         2.849677        -0.346574         2.431367
