19
Iteration:  3031charge 0 multiplicity 1
 C         0.546007         0.325668         0.295247
 C         1.540452        -0.663617        -0.230274
 C         1.472662        -1.240836        -1.619159
 C         2.579917        -0.206703        -1.194992
 O         3.921743        -0.512331        -0.921365
 C         4.124314        -0.307753         0.495178
 C         4.321220        -1.518341         1.408278
 C         3.059510        -0.750706         1.508171
 O         2.031577        -1.538479         0.798623
 H         1.077241         1.200094         0.619395
 H        -0.296485         0.607472        -0.453631
 H        -0.014909        -0.029379         1.162302
 H         1.878776        -2.291837        -1.645151
 H         0.744364        -0.860556        -2.305376
 H         2.522004         0.742456        -1.791403
 H         4.714835         0.502588         0.797548
 H         4.114365        -2.506712         1.019763
 H         5.140567        -1.517198         2.124465
 H         2.578907        -0.120373         2.200483
