19
Iteration:  1254charge 0 multiplicity 1
 C         0.215889         0.185082         0.102943
 C         1.535349        -0.571572        -0.186763
 C         1.694352        -1.369130        -1.554268
 C         2.543076        -0.042817        -1.139945
 O         3.867418        -0.409408        -0.855184
 C         4.249956        -0.414402         0.455940
 C         4.307536        -1.737345         1.214420
 C         3.205247        -0.813813         1.497017
 O         1.973276        -1.232158         1.000850
 H         0.559698         0.826733         0.898479
 H        -0.298424         0.675667        -0.798093
 H        -0.426612        -0.569331         0.439976
 H         2.268929        -2.281838        -1.613674
 H         0.954977        -1.095196        -2.315615
 H         2.519370         0.857947        -1.684963
 H         5.080763         0.396058         0.692288
 H         4.134897        -2.639804         0.618595
 H         4.984411        -1.795481         2.059990
 H         3.190541        -0.357487         2.425207
