19
Iteration:  2305charge 0 multiplicity 1
 C         0.221484         0.284148         0.045067
 C         1.542390        -0.561007        -0.196571
 C         1.538535        -1.259537        -1.503765
 C         2.601115        -0.066251        -1.166339
 O         3.874737        -0.603610        -0.832333
 C         4.219656        -0.342317         0.548213
 C         4.563483        -1.643639         1.240599
 C         3.154696        -0.906357         1.504996
 O         1.931105        -1.327746         0.950782
 H         0.171256         0.753144         1.115045
 H         0.217593         1.000464        -0.753397
 H        -0.574385        -0.336706        -0.211028
 H         1.885508        -2.289236        -1.716907
 H         0.796343        -0.949816        -2.251707
 H         2.510034         0.862571        -1.670928
 H         4.839723         0.629908         0.754674
 H         4.436867        -2.507372         0.686795
 H         5.266029        -1.566641         2.005108
 H         2.900908        -0.184948         2.209250
