19
Iteration:   721charge 0 multiplicity 1
 C         0.215101         0.212037         0.035526
 C         1.504851        -0.581174        -0.131630
 C         1.660203        -1.246446        -1.485744
 C         2.599667        -0.106283        -1.129151
 O         3.910899        -0.441405        -0.852500
 C         4.252294        -0.410916         0.517385
 C         4.393864        -1.678669         1.135030
 C         3.187826        -0.832203         1.448393
 O         1.950577        -1.329260         0.991412
 H         0.384443         1.225875         0.262074
 H        -0.355685         0.377423        -0.913683
 H        -0.448779        -0.237145         0.790918
 H         2.126004        -2.233246        -1.577696
 H         0.758468        -1.248037        -2.081932
 H         2.442956         0.932101        -1.509173
 H         4.711988         0.430225         0.861474
 H         3.992064        -2.606175         0.707297
 H         5.180477        -1.780623         1.881345
 H         3.103182        -0.227898         2.403238
