19
Iteration:  2999charge 0 multiplicity 1
 C         0.382790         0.333573         0.258658
 C         1.448499        -0.558945        -0.251444
 C         1.519578        -1.197405        -1.602160
 C         2.556927        -0.149951        -1.166269
 O         3.869152        -0.597216        -0.891304
 C         4.228233        -0.326295         0.506780
 C         4.476920        -1.553947         1.471646
 C         3.108031        -0.868511         1.488056
 O         2.000326        -1.479384         0.740900
 H         0.823386         1.284274         0.268165
 H        -0.534299         0.555905        -0.390932
 H         0.044473         0.070416         1.238108
 H         2.000656        -2.243888        -1.580214
 H         0.831820        -1.137749        -2.450410
 H         2.466861         0.725590        -1.873142
 H         4.843091         0.495464         0.684416
 H         4.441580        -2.581971         1.176850
 H         5.164544        -1.298262         2.288271
 H         2.792111        -0.220096         2.296145
