19
Iteration:  3598charge 0 multiplicity 1
 C         0.465359         0.376426         0.156489
 C         1.515789        -0.612066        -0.172754
 C         1.576430        -1.184245        -1.514255
 C         2.582882        -0.128085        -1.144456
 O         3.867138        -0.547875        -0.902023
 C         4.170714        -0.331849         0.464497
 C         4.452902        -1.566361         1.328809
 C         3.088761        -0.961698         1.463474
 O         1.888424        -1.497986         0.845557
 H         0.137755         0.924711        -0.800530
 H        -0.297536        -0.102990         0.746749
 H         0.786684         1.289222         0.765127
 H         2.085424        -2.174051        -1.603296
 H         0.880104        -1.030792        -2.317376
 H         2.432896         0.931419        -1.337703
 H         4.516334         0.634645         0.872627
 H         4.608759        -2.455447         0.748662
 H         5.042061        -1.392386         2.199897
 H         2.918747        -0.433091         2.363168
