19
Iteration:  1402
 C         0.340290         0.196381         0.278403
 C         1.530855        -0.538744        -0.272133
 C         1.456094        -1.114331        -1.651320
 C         2.566098        -0.145653        -1.216833
 O         3.851731        -0.703134        -0.825961
 C         4.181338        -0.419936         0.505881
 C         4.443688        -1.502886         1.511619
 C         3.104084        -0.750775         1.452217
 O         2.109029        -1.421862         0.703814
 H         0.704581         0.654242         1.225409
 H         0.014304         0.980030        -0.309176
 H        -0.294705        -0.622927         0.773540
 H         1.776546        -2.157081        -1.742925
 H         0.654104        -0.664661        -2.216057
 H         2.532101         0.912168        -1.633555
 H         4.735492         0.439454         0.651441
 H         4.537194        -2.488196         1.106809
 H         5.162639        -1.158670         2.248603
 H         2.777117        -0.019112         2.265644
