19
Iteration:   552charge 0 multiplicity 1
 C         0.443149         0.296900         0.307275
 C         1.445969        -0.653110        -0.262509
 C         1.543847        -1.185680        -1.634857
 C         2.516311        -0.155895        -1.217674
 O         3.863327        -0.594766        -0.844244
 C         4.168218        -0.409346         0.482511
 C         4.477539        -1.444300         1.474680
 C         3.083575        -0.823248         1.511593
 O         2.047638        -1.497195         0.710677
 H         0.994124         1.172876         0.733444
 H        -0.190436         0.809720        -0.400392
 H        -0.194717        -0.096442         1.055424
 H         1.789515        -2.212505        -1.944899
 H         0.723463        -0.840087        -2.283891
 H         2.610329         0.755859        -1.764255
 H         4.583951         0.644580         0.841859
 H         4.423742        -2.492791         1.130195
 H         5.087882        -1.256577         2.350827
 H         2.892716         0.042794         2.198937
