19
Iteration:  4001
 C         0.314865         0.346130         0.126284
 C         1.524655        -0.604599        -0.160842
 C         1.532215        -1.163717        -1.610460
 C         2.596313        -0.084033        -1.162142
 O         3.827529        -0.631427        -0.843352
 C         4.195694        -0.340468         0.501999
 C         4.443632        -1.605105         1.317759
 C         3.137853        -0.820778         1.498566
 O         2.058494        -1.485801         0.912410
 H         0.242484         1.095398        -0.746230
 H        -0.488627        -0.328222         0.055431
 H         0.376852         0.931498         1.062755
 H         1.882937        -2.194073        -1.870355
 H         0.548643        -0.825452        -2.207798
 H         2.567934         0.820489        -1.727263
 H         4.704055         0.568964         0.652261
 H         4.250377        -2.645768         0.760999
 H         5.255116        -1.570875         2.115897
 H         2.982878        -0.140196         2.390893
