19
Iteration:  4472
 C         0.385105         0.445462         0.206050
 C         1.438871        -0.535755        -0.160352
 C         1.662804        -1.376326        -1.502500
 C         2.581909        -0.189240        -1.227840
 O         3.903920        -0.441045        -0.838920
 C         4.136858        -0.383121         0.524324
 C         4.485088        -1.599360         1.237327
 C         3.129078        -0.950536         1.421875
 O         1.897815        -1.393803         0.849272
 H        -0.184150         1.048869        -0.503297
 H        -0.372604        -0.051994         0.795335
 H         1.023692         1.139570         0.993787
 H         1.979963        -2.388388        -1.504050
 H         1.010923        -1.404440        -2.415186
 H         2.243916         0.808138        -1.643899
 H         4.645996         0.600834         0.878210
 H         4.424152        -2.447778         0.569110
 H         5.097539        -1.822482         2.064868
 H         2.903577        -0.483757         2.329909
