19
Iteration:  3029
 C         0.550492         0.320803         0.293789
 C         1.548435        -0.640635        -0.235472
 C         1.472905        -1.255287        -1.620560
 C         2.575108        -0.192081        -1.190186
 O         3.924375        -0.511946        -0.920614
 C         4.115866        -0.317323         0.483917
 C         4.313779        -1.529518         1.423843
 C         3.051429        -0.750195         1.499541
 O         2.042171        -1.544184         0.803186
 H         1.075420         1.266266         0.562136
 H        -0.290945         0.589228        -0.415109
 H        -0.052988        -0.042094         1.168574
 H         1.804056        -2.227287        -1.739810
 H         0.760182        -0.911797        -2.282612
 H         2.464574         0.694103        -1.777219
 H         4.717799         0.548312         0.853542
 H         4.133670        -2.512588         1.006408
 H         5.186200        -1.474274         2.121668
 H         2.643226        -0.095637         2.236739
