19
Iteration:   199
 C         0.260471         0.256859         0.025054
 C         1.450481        -0.598295        -0.244540
 C         1.544623        -1.304969        -1.563739
 C         2.499549        -0.127002        -1.237482
 O         3.859401        -0.456925        -0.827949
 C         4.261737        -0.379130         0.531862
 C         4.486663        -1.730831         1.256557
 C         3.270517        -0.865073         1.546254
 O         1.996977        -1.231947         1.005823
 H         0.487929         1.303686         0.501860
 H        -0.293070         0.483820        -0.888095
 H        -0.429441        -0.268562         0.805838
 H         2.134611        -2.217347        -1.346529
 H         0.765204        -1.298726        -2.355004
 H         2.236027         0.892899        -1.644796
 H         4.877439         0.572911         0.735271
 H         4.333617        -2.679964         0.738222
 H         5.180668        -1.748667         2.087570
 H         3.156871        -0.457214         2.474815
