19
Iteration:  1931charge 0 multiplicity 1
 C         0.308697         0.276006         0.169581
 C         1.478928        -0.605789        -0.201643
 C         1.505626        -1.067702        -1.594715
 C         2.575345        -0.092276        -1.207540
 O         3.885240        -0.756356        -0.872746
 C         4.211473        -0.297499         0.470755
 C         4.455492        -1.505110         1.504230
 C         3.152609        -0.817708         1.464551
 O         2.040820        -1.546061         0.825300
 H         0.693942         0.846810         1.033993
 H         0.086938         0.992377        -0.698741
 H        -0.540477        -0.271276         0.213029
 H         1.624287        -2.003609        -2.066200
 H         0.659946        -0.632532        -2.117568
 H         2.406816         0.957271        -1.376172
 H         4.753784         0.759324         0.549591
 H         4.697764        -2.429449         0.996752
 H         4.996675        -1.200188         2.364698
 H         2.987348        -0.303688         2.315744
