19
Iteration:  2216charge 0 multiplicity 1
 C         0.487748         0.377047         0.272425
 C         1.495772        -0.645808        -0.295616
 C         1.465583        -1.144411        -1.666433
 C         2.584324        -0.174439        -1.202055
 O         3.895379        -0.644638        -0.825725
 C         4.070249        -0.250108         0.599394
 C         4.498867        -1.493362         1.455997
 C         3.039922        -0.855552         1.452797
 O         2.055966        -1.581686         0.730686
 H         0.932363         1.242923         0.861079
 H        -0.220168         0.692825        -0.527862
 H        -0.101617        -0.027721         1.025895
 H         1.477764        -2.224493        -1.713079
 H         0.767718        -0.729647        -2.412621
 H         2.824130         0.804456        -1.606640
 H         4.551656         0.701069         0.839602
 H         4.374452        -2.496526         0.949956
 H         5.285365        -1.261828         2.196099
 H         2.618616        -0.281625         2.223644
