19
Iteration:  2438
 C         0.362261         0.238037         0.098300
 C         1.523866        -0.653279        -0.213991
 C         1.505742        -1.152065        -1.606331
 C         2.592626        -0.059499        -1.136522
 O         3.894485        -0.641887        -0.850412
 C         4.110384        -0.353380         0.499144
 C         4.459579        -1.556742         1.325870
 C         3.158737        -0.861837         1.482216
 O         1.970391        -1.375305         0.958514
 H         0.607705         1.297746         0.442317
 H        -0.157559         0.532810        -0.839223
 H        -0.430996        -0.354703         0.678161
 H         2.006736        -2.142043        -1.819588
 H         0.678374        -0.742222        -2.178638
 H         2.820107         0.888460        -1.631744
 H         4.779858         0.657112         0.713994
 H         4.528186        -2.508168         0.720697
 H         5.298020        -1.543673         2.050789
 H         2.909589        -0.457719         2.474574
