19
Iteration:  1343charge 0 multiplicity 1
 C         0.385167         0.296720         0.176008
 C         1.513838        -0.624423        -0.207015
 C         1.619468        -1.236577        -1.616143
 C         2.480171        -0.160641        -1.232577
 O         3.796679        -0.471418        -0.862247
 C         4.165917        -0.367427         0.517786
 C         4.512556        -1.604415         1.347810
 C         3.223027        -0.897885         1.511777
 O         1.936271        -1.384451         0.910216
 H         0.748732         0.941590         0.920572
 H         0.094055         0.901887        -0.759123
 H        -0.593252        -0.103289         0.292263
 H         1.940715        -2.277443        -1.634585
 H         0.903623        -0.934744        -2.383748
 H         2.310746         0.795892        -1.666743
 H         4.799108         0.535119         0.655101
 H         4.566840        -2.573291         0.833768
 H         5.171480        -1.463057         2.229933
 H         2.964374        -0.421662         2.495004
