19
Iteration:  1642
 C         0.466810         0.347677         0.305415
 C         1.501396        -0.616803        -0.210136
 C         1.574794        -1.179590        -1.593509
 C         2.583920        -0.194761        -1.197298
 O         3.899847        -0.498812        -0.922267
 C         4.139184        -0.339578         0.501954
 C         4.385313        -1.480809         1.453167
 C         3.007214        -0.920012         1.418173
 O         2.019149        -1.581792         0.803267
 H         0.899412         0.877272         1.101071
 H         0.434543         1.019323        -0.476916
 H        -0.591738         0.073472         0.680178
 H         1.814219        -2.212673        -1.853697
 H         0.972511        -0.682690        -2.335422
 H         2.608637         0.752458        -1.775495
 H         4.500860         0.582836         0.536516
 H         4.509105        -2.459363         0.972203
 H         5.033812        -1.247937         2.305535
 H         2.649772        -0.245961         2.332504
