19
Iteration:  3392charge 0 multiplicity 1
 C         0.386084         0.269319         0.145362
 C         1.491651        -0.571055        -0.227535
 C         1.612763        -1.264624        -1.534542
 C         2.579234        -0.202762        -1.150973
 O         3.939496        -0.361404        -0.853529
 C         4.196174        -0.355476         0.496714
 C         4.339321        -1.705686         1.211274
 C         3.136342        -0.832746         1.468034
 O         1.918961        -1.385924         0.928152
 H        -0.396661         0.535644        -0.523985
 H        -0.126432        -0.231889         1.008166
 H         0.772359         1.234011         0.364265
 H         2.005342        -2.363364        -1.334755
 H         0.891727        -1.109208        -2.363752
 H         2.486095         0.835555        -1.582612
 H         5.046836         0.316668         1.012827
 H         4.185336        -2.624038         0.657857
 H         5.032901        -1.800066         1.980467
 H         2.906292        -0.300379         2.405109
