19
Iteration:  4854
 C         0.556723         0.457264         0.291114
 C         1.533801        -0.556566        -0.263134
 C         1.538833        -1.293713        -1.596118
 C         2.575907        -0.215942        -1.227000
 O         3.899843        -0.505830        -0.847271
 C         4.060422        -0.368420         0.569344
 C         4.481623        -1.540841         1.379258
 C         3.036540        -0.980515         1.446606
 O         1.897020        -1.455005         0.792274
 H         0.224143         1.018933        -0.569733
 H        -0.095204        -0.246478         0.773780
 H         1.197347         1.226044         0.795998
 H         1.767597        -2.321046        -1.396741
 H         0.751233        -1.197255        -2.390837
 H         2.485675         0.757155        -1.858790
 H         4.356100         0.727199         0.815519
 H         4.562783        -2.513174         0.861618
 H         5.304327        -1.337511         2.141879
 H         2.723674        -0.189597         2.223642
