19
Iteration:  3440
 C         0.294753         0.328660         0.133173
 C         1.444377        -0.550343        -0.208282
 C         1.650878        -1.344942        -1.508478
 C         2.528944        -0.104600        -1.068744
 O         3.910702        -0.423928        -0.847292
 C         4.322728        -0.458976         0.452034
 C         4.436805        -1.674634         1.247840
 C         3.107587        -0.806050         1.467405
 O         1.920813        -1.370790         0.874806
 H         0.056337         1.085025        -0.676612
 H        -0.635926        -0.428701         0.131853
 H         0.489585         1.019937         1.010498
 H         2.025006        -2.311733        -1.434660
 H         0.961603        -1.180871        -2.311413
 H         2.470498         0.852827        -1.534385
 H         4.843742         0.366407         0.692586
 H         4.356868        -2.656343         0.721434
 H         5.266228        -1.796828         2.031870
 H         2.867221        -0.325882         2.469803
