19
Iteration:  1422charge 0 multiplicity 1
 C         0.354735         0.282342         0.338767
 C         1.459411        -0.664163        -0.257726
 C         1.539149        -1.127351        -1.704848
 C         2.579018        -0.143471        -1.169848
 O         3.866429        -0.661449        -0.929001
 C         4.271246        -0.333166         0.478847
 C         4.463109        -1.486278         1.494790
 C         3.147990        -0.820017         1.431868
 O         1.959085        -1.480866         0.829177
 H         0.706538         0.975184         1.044253
 H         0.017998         0.930911        -0.545001
 H        -0.480274        -0.361948         0.805317
 H         2.042657        -2.089394        -1.798790
 H         0.839586        -0.644000        -2.379695
 H         2.574077         0.897895        -1.632023
 H         4.768346         0.587256         0.532940
 H         4.383724        -2.515915         1.179795
 H         4.965333        -1.172616         2.399121
 H         2.637809        -0.264634         2.361641
