19
Iteration:   544
 C         0.444114         0.345024         0.273520
 C         1.488888        -0.669649        -0.254267
 C         1.518012        -1.237740        -1.647055
 C         2.558231        -0.101698        -1.161918
 O         3.846159        -0.578755        -0.886769
 C         4.157145        -0.373433         0.484222
 C         4.517292        -1.514830         1.520877
 C         3.097639        -0.817117         1.453445
 O         2.035018        -1.476855         0.741876
 H         0.806933         1.073485         0.940304
 H        -0.414553         0.645693        -0.605880
 H        -0.203610        -0.181261         0.974108
 H         1.779002        -2.330861        -1.740853
 H         0.724200        -0.825197        -2.300789
 H         2.446804         0.866582        -1.673664
 H         4.806037         0.477060         0.747565
 H         4.297983        -2.543811         1.156951
 H         5.251426        -1.237769         2.305515
 H         2.475250        -0.055890         2.200780
