19
Iteration:  1676charge 0 multiplicity 1
 C         0.528680         0.330471         0.323232
 C         1.476429        -0.588417        -0.256016
 C         1.507247        -1.209494        -1.645756
 C         2.589105        -0.165060        -1.208510
 O         3.818215        -0.647265        -0.761444
 C         4.131899        -0.260062         0.553684
 C         4.445426        -1.425145         1.436182
 C         3.042445        -0.903702         1.414260
 O         2.033847        -1.541671         0.664548
 H         1.199713         0.824917         1.022666
 H         0.337065         1.125368        -0.306847
 H        -0.472866        -0.010329         0.693261
 H         1.798413        -2.293901        -1.799730
 H         0.803355        -0.789172        -2.435333
 H         2.511979         0.804846        -1.737552
 H         4.518183         0.673258         0.731393
 H         4.828981        -2.307587         0.855204
 H         5.001157        -1.274158         2.410677
 H         2.621679        -0.512877         2.425039
