19
Iteration:  3813charge 0 multiplicity 1
 C         0.435706         0.327657         0.245997
 C         1.493410        -0.623331        -0.229029
 C         1.569807        -1.175347        -1.585305
 C         2.524553        -0.100146        -1.093209
 O         3.866631        -0.548122        -0.920074
 C         4.214772        -0.449419         0.436775
 C         4.398973        -1.588980         1.461479
 C         3.112284        -0.805113         1.411255
 O         1.991739        -1.496967         0.788410
 H         0.187838         1.231082        -0.355703
 H        -0.436349        -0.227084         0.235687
 H         0.517909         0.848203         1.196874
 H         2.151948        -2.237192        -1.653200
 H         0.702773        -0.951729        -2.276348
 H         2.594183         1.008194        -1.329013
 H         4.767353         0.464492         0.640833
 H         4.437490        -2.632468         1.224851
 H         4.973268        -1.169885         2.242976
 H         2.814215        -0.073549         2.115667
