19
Iteration:   948charge 0 multiplicity 1
 C         0.307335         0.335213         0.002065
 C         1.511785        -0.566066        -0.101141
 C         1.635690        -1.337435        -1.428199
 C         2.539239        -0.191672        -1.141548
 O         3.973530        -0.378519        -0.853761
 C         4.192692        -0.341797         0.497026
 C         4.363559        -1.670933         1.128009
 C         3.164438        -0.876894         1.475453
 O         1.936846        -1.390433         0.963007
 H         0.437042         1.404136         0.404496
 H        -0.352441         0.176715        -0.948689
 H        -0.407352        -0.161278         0.748398
 H         2.152741        -2.309852        -1.369424
 H         0.891218        -1.189941        -2.234120
 H         2.238117         0.792848        -1.464435
 H         4.843474         0.522370         0.878079
 H         4.302878        -2.450393         0.354320
 H         5.114819        -1.663066         1.937795
 H         3.078882        -0.445568         2.489558
