19
Iteration:  2884
 C         0.301742         0.263948         0.181793
 C         1.463101        -0.579085        -0.242663
 C         1.613793        -1.332962        -1.489225
 C         2.621953        -0.224442        -1.265993
 O         3.904534        -0.411966        -0.913034
 C         4.182056        -0.417025         0.530815
 C         4.378196        -1.684190         1.231418
 C         3.166200        -0.825210         1.531112
 O         2.000797        -1.255850         0.974729
 H         0.239579         0.506103         1.316908
 H         0.222704         1.301897        -0.133724
 H        -0.634514        -0.178532        -0.277985
 H         1.804488        -2.449604        -1.449815
 H         0.971958        -1.019893        -2.299771
 H         2.480401         0.576155        -1.958291
 H         4.707159         0.538037         0.724836
 H         4.191493        -2.589823         0.721609
 H         5.195779        -1.644163         1.918976
 H         3.053841        -0.189538         2.444769
