19
Iteration:  3742charge 0 multiplicity 1
 C         0.393880         0.446221         0.192999
 C         1.492496        -0.565586        -0.169289
 C         1.652606        -1.242174        -1.580962
 C         2.576658        -0.117385        -1.169435
 O         3.916845        -0.564973        -0.856824
 C         4.073346        -0.332643         0.537921
 C         4.541007        -1.599724         1.314395
 C         3.112381        -0.998826         1.409362
 O         1.878188        -1.467109         0.839437
 H        -0.298877         0.797244        -0.576722
 H        -0.254701        -0.098066         0.957607
 H         0.704910         1.428010         0.571219
 H         1.937888        -2.236983        -1.566891
 H         0.842368        -1.124139        -2.302098
 H         2.521495         0.889581        -1.533791
 H         4.466778         0.733154         0.688517
 H         4.631453        -2.467357         0.622819
 H         5.102193        -1.463466         2.317313
 H         2.955830        -0.458740         2.396850
