19
Iteration:   221
 C         0.300289         0.283560         0.034529
 C         1.472927        -0.575448        -0.155732
 C         1.641013        -1.329867        -1.425265
 C         2.557655        -0.159550        -1.133196
 O         3.851541        -0.542146        -0.870881
 C         4.208620        -0.317075         0.514869
 C         4.437465        -1.661966         1.174665
 C         3.147250        -0.802267         1.458759
 O         1.986053        -1.324781         0.975313
 H         0.419353         1.134854         0.820799
 H         0.141332         0.780488        -0.905425
 H        -0.615315        -0.345478         0.388696
 H         2.163838        -2.279898        -1.625454
 H         0.806224        -0.993779        -2.082874
 H         2.509502         0.910805        -1.537018
 H         4.823443         0.658931         0.603887
 H         4.364611        -2.478835         0.450047
 H         5.191121        -1.846645         1.952152
 H         3.049052        -0.345661         2.367117
