19
Iteration:  2651charge 0 multiplicity 1
 C         0.243829         0.268580         0.157077
 C         1.428755        -0.613644        -0.175923
 C         1.557789        -1.381641        -1.489657
 C         2.538517        -0.207242        -1.212443
 O         3.997642        -0.424990        -0.916870
 C         4.274100        -0.419256         0.415835
 C         4.356985        -1.610095         1.326039
 C         3.192498        -0.746871         1.449878
 O         2.010630        -1.265229         0.948263
 H        -0.632645        -0.331469        -0.015962
 H         0.346321         0.382132         1.246844
 H         0.395799         1.193392        -0.359573
 H         2.046978        -2.441553        -1.550628
 H         0.794013        -1.174948        -2.345632
 H         2.259816         0.812191        -1.603562
 H         4.951505         0.291696         0.729373
 H         3.930761        -2.550329         0.889226
 H         5.034259        -1.912163         2.204709
 H         3.075590        -0.120797         2.370574
