19
Iteration:   684
 C         0.146607         0.172199         0.110863
 C         1.510103        -0.550846        -0.166809
 C         1.671585        -1.273227        -1.598593
 C         2.550733        -0.136363        -1.176142
 O         3.874192        -0.473519        -0.825727
 C         4.249323        -0.397417         0.493781
 C         4.456406        -1.735615         1.196701
 C         3.179598        -0.860209         1.448783
 O         1.967226        -1.179431         0.961457
 H         0.459028         0.776882         1.031666
 H        -0.215093         0.794793        -0.790112
 H        -0.636945        -0.440598         0.498093
 H         2.238523        -2.195029        -1.449530
 H         0.729256        -1.103738        -2.136568
 H         2.680023         0.827615        -1.641079
 H         4.992129         0.563337         0.841513
 H         4.457669        -2.799493         0.906696
 H         5.056337        -1.751735         2.132632
 H         3.041828        -0.265744         2.448950
