19
Iteration:  3107
 C         0.305100         0.295072         0.101762
 C         1.472965        -0.610150        -0.176337
 C         1.525290        -1.177531        -1.560221
 C         2.510951        -0.231582        -1.101211
 O         3.859113        -0.603142        -0.859026
 C         4.243963        -0.371115         0.447719
 C         4.503843        -1.523345         1.319956
 C         3.222218        -0.804067         1.466055
 O         2.024832        -1.383950         0.911214
 H        -0.061219         0.403374         1.085541
 H         0.394493         1.270891        -0.579540
 H        -0.588247        -0.193383        -0.325941
 H         1.924657        -2.212335        -1.706098
 H         0.781309        -0.704409        -2.139838
 H         2.441421         0.843816        -1.362880
 H         4.677453         0.569184         0.688799
 H         4.307603        -2.498104         0.844080
 H         5.038032        -1.873860         2.157834
 H         2.974197        -0.169938         2.252577
