19
Iteration:  1969charge 0 multiplicity 1
 C         0.444477         0.316551         0.342126
 C         1.483957        -0.613328        -0.251161
 C         1.600342        -1.132207        -1.679979
 C         2.587846        -0.138949        -1.260846
 O         3.815531        -0.730506        -0.891894
 C         4.167539        -0.292431         0.505068
 C         4.405685        -1.433039         1.459687
 C         3.063501        -0.828111         1.447054
 O         2.033409        -1.523419         0.781744
 H         0.656263         0.552596         1.411434
 H         0.167077         1.218782        -0.148963
 H        -0.499601        -0.332444         0.559206
 H         1.972458        -2.194504        -1.655027
 H         0.829937        -0.798119        -2.385387
 H         2.739343         0.927129        -1.545027
 H         4.659068         0.611375         0.651799
 H         4.512139        -2.488463         1.177951
 H         5.113391        -1.173041         2.284041
 H         2.664440        -0.241709         2.376041
