19
Iteration:  1950
 C         0.361113         0.296679         0.269646
 C         1.467928        -0.615925        -0.192785
 C         1.516255        -1.067051        -1.700296
 C         2.600486        -0.151643        -1.065682
 O         3.852888        -0.720322        -0.856358
 C         4.159645        -0.440923         0.445030
 C         4.550942        -1.400566         1.507770
 C         3.100471        -0.820219         1.412292
 O         2.019566        -1.517529         0.745213
 H         0.560404         0.791909         1.150739
 H         0.277268         1.076156        -0.449134
 H        -0.714044        -0.195831         0.339157
 H         1.902362        -2.102885        -1.857419
 H         0.824434        -0.723402        -2.508885
 H         2.570196         0.841772        -1.492268
 H         4.561186         0.523954         0.514656
 H         4.659978        -2.407455         1.212024
 H         5.093450        -0.982038         2.309362
 H         2.664418        -0.064683         2.164916
