19
Iteration:  2713charge 0 multiplicity 1
 C         0.386312         0.366086         0.104545
 C         1.482384        -0.621280        -0.135094
 C         1.569072        -1.251907        -1.530141
 C         2.495680        -0.220352        -1.149807
 O         3.844615        -0.655890        -0.842826
 C         4.175735        -0.330017         0.452122
 C         4.546197        -1.436523         1.300679
 C         3.152185        -0.849747         1.420020
 O         1.959502        -1.446658         0.925009
 H        -0.637713         0.021761        -0.063076
 H         0.296522         0.688284         1.173937
 H         0.433646         1.272132        -0.594983
 H         1.891971        -2.309665        -1.559354
 H         0.876619        -0.930141        -2.264346
 H         2.502204         0.763177        -1.582710
 H         4.716107         0.709492         0.551711
 H         4.598317        -2.342105         0.719869
 H         5.215590        -1.281102         2.165210
 H         2.986691        -0.265037         2.313972
