19
Iteration:  4522charge 0 multiplicity 1
 C         0.446972         0.386971         0.167834
 C         1.493983        -0.550820        -0.172775
 C         1.490257        -1.199203        -1.631444
 C         2.539443        -0.085653        -1.142509
 O         3.839734        -0.639556        -0.836228
 C         4.136351        -0.339856         0.520614
 C         4.474483        -1.590168         1.361806
 C         3.141498        -0.867858         1.486897
 O         2.057354        -1.477441         0.832916
 H         0.081061         0.949498        -0.746860
 H        -0.438264        -0.314240         0.341775
 H         0.584844         1.063359         0.950703
 H         2.044609        -2.234788        -1.717208
 H         0.549744        -1.151575        -2.299680
 H         2.425111         0.881745        -1.673919
 H         4.665526         0.548484         0.678000
 H         4.358598        -2.507883         0.760197
 H         5.374605        -1.559926         2.023765
 H         2.766204        -0.276211         2.374111
