19
Iteration:  2877charge 0 multiplicity 1
 C         0.278739         0.274468         0.155112
 C         1.481190        -0.520139        -0.249213
 C         1.640808        -1.333902        -1.544759
 C         2.566616        -0.287407        -1.277170
 O         3.872097        -0.423773        -0.897720
 C         4.230553        -0.348435         0.500623
 C         4.417542        -1.689946         1.266229
 C         3.198800        -0.859127         1.560338
 O         1.954060        -1.273011         0.987133
 H         0.191814         0.303772         1.255845
 H         0.491121         1.377144        -0.139687
 H        -0.783926        -0.031710        -0.048459
 H         1.806115        -2.338076        -1.534019
 H         0.837325        -1.117144        -2.228652
 H         2.448822         0.638564        -1.875185
 H         4.922391         0.542418         0.805248
 H         4.412589        -2.556050         0.498065
 H         5.043707        -1.713268         2.201518
 H         3.080510        -0.206014         2.420473
