19
Iteration:  1719
 C         0.406354         0.254167         0.199428
 C         1.509119        -0.626402        -0.183623
 C         1.611882        -1.124190        -1.543696
 C         2.578391        -0.055423        -1.163037
 O         3.912010        -0.607241        -0.900451
 C         4.200208        -0.362958         0.506748
 C         4.383299        -1.556529         1.389457
 C         3.077878        -0.855397         1.429002
 O         1.934423        -1.470772         0.823437
 H         0.621659         1.017519         0.889007
 H        -0.097549         0.701996        -0.593147
 H        -0.475275        -0.443053         0.539921
 H         1.940323        -2.187918        -1.603413
 H         0.757347        -0.893544        -2.245361
 H         2.596470         0.964276        -1.635450
 H         4.720998         0.513229         0.613927
 H         4.659254        -2.480674         0.850250
 H         5.138517        -1.306201         2.184119
 H         2.828318        -0.150955         2.338350
