19
Iteration:   826charge 0 multiplicity 1
 C         0.439875         0.301286         0.272685
 C         1.435309        -0.656570        -0.203147
 C         1.580745        -1.177851        -1.733954
 C         2.517234        -0.120645        -1.180869
 O         3.818580        -0.659737        -0.843934
 C         4.150521        -0.331332         0.438235
 C         4.483221        -1.419935         1.437461
 C         3.131859        -0.849544         1.478501
 O         2.049077        -1.503902         0.820160
 H         0.431064         0.451667         1.454561
 H         0.402605         1.218406        -0.485897
 H        -0.551102        -0.094506         0.143906
 H         1.800433        -2.217363        -1.736420
 H         0.858619        -0.849237        -2.404446
 H         2.553526         0.899994        -1.479735
 H         4.675935         0.789368         0.571020
 H         4.624089        -2.448192         1.256143
 H         5.060560        -1.279467         2.275368
 H         2.835469        -0.236455         2.392487
