19
Iteration:   197charge 0 multiplicity 1
 C         0.257654         0.264210         0.041370
 C         1.441603        -0.582550        -0.257602
 C         1.553493        -1.311225        -1.563634
 C         2.502953        -0.141786        -1.238031
 O         3.852040        -0.445203        -0.838703
 C         4.266635        -0.382316         0.538633
 C         4.499126        -1.739792         1.253797
 C         3.249437        -0.857590         1.545170
 O         1.997078        -1.233912         1.013416
 H         0.461439         1.229485         0.458722
 H        -0.352665         0.464400        -0.927336
 H        -0.351865        -0.260200         0.777846
 H         2.125062        -2.247352        -1.373818
 H         0.814155        -1.262898        -2.353579
 H         2.312324         0.891758        -1.550571
 H         4.878415         0.495720         0.691247
 H         4.361599        -2.695128         0.787857
 H         5.198412        -1.722881         2.041460
 H         3.155652        -0.433869         2.539134
