19
Iteration:  2355charge 0 multiplicity 1
 C         0.326807         0.287561         0.035171
 C         1.496931        -0.605191        -0.153099
 C         1.677057        -1.343760        -1.465703
 C         2.542064        -0.183726        -1.191662
 O         3.922429        -0.326237        -0.840702
 C         4.192633        -0.436619         0.509038
 C         4.391681        -1.733085         1.151874
 C         3.171443        -0.804821         1.560256
 O         1.910050        -1.279416         0.945492
 H         0.686157         0.816006         0.842580
 H         0.061246         0.815649        -0.914889
 H        -0.560091        -0.330019         0.356332
 H         2.045682        -2.383437        -1.574321
 H         0.842594        -1.277084        -2.104178
 H         2.381105         0.798003        -1.722807
 H         4.776879         0.367870         0.812199
 H         4.129481        -2.597593         0.477183
 H         5.188169        -1.709213         1.927427
 H         2.985143        -0.389896         2.597876
