19
Iteration:  1370charge 0 multiplicity 1
 C         0.304314         0.280109         0.282587
 C         1.504286        -0.612797        -0.215618
 C         1.582301        -1.147341        -1.572459
 C         2.600191        -0.168772        -1.163753
 O         3.936803        -0.668537        -0.907088
 C         4.204021        -0.344261         0.489160
 C         4.386241        -1.495301         1.384964
 C         3.087904        -0.762780         1.417337
 O         1.998809        -1.483396         0.816702
 H         0.859467         0.714644         1.181404
 H        -0.133581         1.037818        -0.302483
 H        -0.683804        -0.359459         0.453589
 H         2.001942        -2.157646        -1.611307
 H         0.762415        -0.848884        -2.223561
 H         2.520747         0.924257        -1.463336
 H         4.771929         0.548237         0.578106
 H         4.480093        -2.306951         0.678662
 H         5.131778        -1.402199         2.157034
 H         2.729787        -0.142499         2.246083
