19
Iteration:  4351
 C         0.314508         0.294449         0.270804
 C         1.448698        -0.554385        -0.222885
 C         1.509208        -1.183794        -1.610646
 C         2.619392        -0.184719        -1.129580
 O         3.964194        -0.610550        -0.859720
 C         4.185648        -0.340699         0.477972
 C         4.479306        -1.539268         1.400005
 C         3.139432        -0.845107         1.432845
 O         1.950129        -1.441478         0.789924
 H         0.144285         1.125399        -0.493919
 H        -0.634925        -0.164166         0.517479
 H         0.714425         0.946707         1.179589
 H         1.610879        -2.303909        -1.759997
 H         0.886879        -0.752113        -2.382762
 H         2.484581         0.777837        -1.689885
 H         4.704708         0.562568         0.801964
 H         4.515304        -2.385454         0.717034
 H         5.202247        -1.756748         2.184890
 H         2.829361        -0.408651         2.337096
