19
Iteration:  2582charge 0 multiplicity 1
 C         0.265546         0.297200         0.056395
 C         1.432291        -0.590027        -0.174128
 C         1.545457        -1.191979        -1.607786
 C         2.576657        -0.233970        -1.142578
 O         3.877643        -0.643638        -0.810503
 C         4.250547        -0.294247         0.517322
 C         4.527103        -1.544384         1.250339
 C         3.208535        -0.900363         1.459171
 O         1.954124        -1.334156         0.977025
 H        -0.086496        -0.123758         0.951560
 H         0.480512         1.350457         0.297622
 H        -0.459922         0.321843        -0.777573
 H         1.791936        -2.181050        -1.671376
 H         0.847833        -0.801956        -2.293286
 H         2.477302         0.699807        -1.641548
 H         4.646728         0.776776         0.678602
 H         4.497399        -2.511627         0.831064
 H         5.209797        -1.490237         2.030955
 H         3.052978        -0.334915         2.349853
