19
Iteration:  4596charge 0 multiplicity 1
 C         0.337738         0.228153         0.214527
 C         1.501056        -0.557332        -0.151391
 C         1.523860        -1.133038        -1.597901
 C         2.590417        -0.047081        -1.215187
 O         3.827077        -0.724177        -0.822131
 C         4.168301        -0.457533         0.472411
 C         4.401695        -1.593059         1.421459
 C         3.181614        -0.723255         1.426416
 O         2.087616        -1.398362         0.796240
 H        -0.054541         0.992070        -0.503637
 H        -0.564290        -0.376739         0.578380
 H         0.602801         0.976918         1.039149
 H         2.075551        -2.037296        -1.973164
 H         0.731807        -0.912309        -2.230479
 H         2.497222         0.930430        -1.644277
 H         4.840182         0.389065         0.577708
 H         4.286712        -2.595953         0.937768
 H         5.109825        -1.453281         2.265771
 H         2.825443         0.009148         2.241459
