19
Iteration:  2669charge 0 multiplicity 1
 C         0.264495         0.318376         0.141144
 C         1.474222        -0.599891        -0.225321
 C         1.570611        -1.355208        -1.549733
 C         2.544493        -0.245926        -1.152851
 O         3.852367        -0.493168        -0.871924
 C         4.289265        -0.337232         0.492766
 C         4.453481        -1.673284         1.284054
 C         3.204219        -0.732960         1.464837
 O         1.966685        -1.300559         0.952271
 H        -0.677850        -0.122875        -0.220031
 H         0.196139         0.326993         1.242951
 H         0.392176         1.294310        -0.418854
 H         1.806501        -2.390613        -1.402570
 H         0.892757        -1.139682        -2.269338
 H         2.361959         0.555004        -1.827839
 H         4.981648         0.587534         0.779672
 H         4.476347        -2.597416         0.770088
 H         5.250258        -1.542888         1.957115
 H         3.043694        -0.180681         2.366716
