19
Iteration:  3464charge 0 multiplicity 1
 C         0.191726         0.291604         0.114240
 C         1.444781        -0.564753        -0.156602
 C         1.594242        -1.147566        -1.507553
 C         2.640972        -0.172045        -1.229956
 O         3.939889        -0.578889        -0.853096
 C         4.197979        -0.324626         0.480206
 C         4.431091        -1.642941         1.285001
 C         3.192628        -0.924651         1.456761
 O         1.985417        -1.356688         0.952329
 H         0.055992         1.287981        -0.577495
 H        -0.609453        -0.419258        -0.211134
 H         0.181965         0.803374         1.171289
 H         1.861376        -2.258130        -1.528408
 H         0.839787        -0.907497        -2.224735
 H         2.621585         0.906699        -1.572493
 H         4.585112         0.687358         0.666411
 H         4.581871        -2.528601         0.588030
 H         5.105267        -1.798166         2.120732
 H         3.092930        -0.414346         2.398440
