19
Iteration:  2222
 C         0.502791         0.343211         0.284525
 C         1.508833        -0.634169        -0.258898
 C         1.484276        -1.108989        -1.702269
 C         2.611278        -0.200725        -1.228047
 O         3.887426        -0.610315        -0.818895
 C         4.083856        -0.343248         0.534174
 C         4.436810        -1.448871         1.474648
 C         3.007537        -0.855001         1.450401
 O         2.075499        -1.552719         0.758482
 H         0.957519         1.139170         0.834546
 H        -0.227906         0.790240        -0.406631
 H        -0.054097        -0.147951         1.197930
 H         1.668179        -2.183962        -1.871627
 H         0.649563        -0.795858        -2.344772
 H         2.649001         0.782733        -1.794755
 H         4.546622         0.665738         0.761242
 H         4.402560        -2.477751         1.101192
 H         5.293795        -1.328722         2.175991
 H         2.525645        -0.300042         2.371816
