19
Iteration:  2326
 C         0.246053         0.338939        -0.039757
 C         1.408001        -0.599130        -0.113622
 C         1.709693        -1.271677        -1.531488
 C         2.521130        -0.139938        -1.098747
 O         3.877564        -0.534692        -0.845018
 C         4.220609        -0.348618         0.472456
 C         4.472276        -1.678029         1.163866
 C         3.225971        -0.885444         1.508730
 O         1.905917        -1.313371         1.012578
 H         0.446734         0.755803         1.069502
 H         0.223045         1.120649        -0.788835
 H        -0.662364        -0.137306        -0.134303
 H         2.222064        -2.246697        -1.403652
 H         1.073580        -1.267156        -2.451561
 H         2.416813         0.880793        -1.388706
 H         4.642519         0.657109         0.726950
 H         4.589521        -2.447704         0.487804
 H         5.044396        -1.672052         2.054934
 H         3.256865        -0.494428         2.535048
