19
Iteration:  2580charge 0 multiplicity 1
 C         0.264466         0.306043         0.054235
 C         1.434146        -0.582331        -0.157233
 C         1.545384        -1.191224        -1.607034
 C         2.587244        -0.230295        -1.137434
 O         3.878045        -0.654372        -0.822949
 C         4.245986        -0.293895         0.525984
 C         4.522725        -1.542081         1.244836
 C         3.201747        -0.901722         1.472791
 O         1.952469        -1.337502         0.962319
 H        -0.049879        -0.120866         1.020457
 H         0.533756         1.338328         0.311392
 H        -0.437848         0.246723        -0.830408
 H         1.811529        -2.191896        -1.702931
 H         0.785641        -0.839042        -2.316890
 H         2.436317         0.709373        -1.675752
 H         4.606792         0.814832         0.701447
 H         4.532839        -2.527672         0.817324
 H         5.268304        -1.440694         2.034767
 H         3.043386        -0.325582         2.381679
