19
Iteration:  2549
 C         0.388550         0.399760         0.147844
 C         1.472735        -0.584965        -0.193529
 C         1.610932        -1.223262        -1.516984
 C         2.550074        -0.150180        -1.209583
 O         3.795303        -0.631149        -0.843512
 C         4.167019        -0.313760         0.454343
 C         4.476021        -1.514491         1.367011
 C         3.142934        -0.877985         1.445995
 O         2.017416        -1.501599         0.837981
 H         0.144949         0.128796         1.154296
 H         0.854040         1.382356         0.164150
 H        -0.578767         0.133365        -0.307353
 H         1.982279        -2.162218        -1.475922
 H         0.861934        -1.218302        -2.272242
 H         2.485841         0.808616        -1.701134
 H         4.552142         0.759926         0.792249
 H         4.434253        -2.525902         1.041238
 H         5.073064        -1.221992         2.199122
 H         2.925322        -0.218145         2.267636
