19
Iteration:   322charge 0 multiplicity 1
 C         0.474698         0.266947         0.258943
 C         1.488488        -0.623716        -0.221937
 C         1.463281        -1.203876        -1.676911
 C         2.564886        -0.142733        -1.149644
 O         3.814449        -0.699648        -0.900755
 C         4.227554        -0.368010         0.492562
 C         4.526214        -1.375360         1.439204
 C         3.079710        -0.835560         1.441294
 O         1.938371        -1.456670         0.825488
 H         0.931585         0.852267         1.161413
 H         0.055818         1.018790        -0.402300
 H        -0.382982        -0.357511         0.628022
 H         1.875795        -2.204775        -1.701562
 H         0.940723        -0.715297        -2.451645
 H         2.658390         0.865939        -1.542303
 H         4.625547         0.659725         0.604898
 H         4.892958        -2.343213         1.036348
 H         5.091834        -1.097154         2.324528
 H         2.798783        -0.230488         2.258043
