19
Iteration:  1201charge 0 multiplicity 1
 C         0.246841         0.266298         0.138188
 C         1.458264        -0.618095        -0.175452
 C         1.596448        -1.192856        -1.600578
 C         2.505067        -0.102307        -1.230928
 O         3.865440        -0.560091        -0.892369
 C         4.258721        -0.367203         0.550455
 C         4.491380        -1.635975         1.326800
 C         3.224643        -0.882995         1.508760
 O         1.979330        -1.283615         0.900711
 H         0.339303         0.740294         1.099347
 H        -0.017036         0.850156        -0.834756
 H        -0.686470        -0.513481         0.119557
 H         2.110091        -2.129920        -1.593250
 H         0.683219        -1.233313        -2.194139
 H         2.519633         0.873599        -1.524803
 H         4.801556         0.556114         0.665824
 H         4.712953        -2.626031         0.908827
 H         5.064266        -1.424645         2.227749
 H         3.019349        -0.617838         2.503529
