19
Iteration:  1877charge 0 multiplicity 1
 C         0.325714         0.316013         0.224662
 C         1.425341        -0.545117        -0.218224
 C         1.719098        -1.327105        -1.547237
 C         2.550367        -0.186673        -1.206017
 O         3.934990        -0.376383        -0.897151
 C         4.295744        -0.367159         0.526878
 C         4.335997        -1.690824         1.247083
 C         3.127738        -0.893189         1.423873
 O         1.911716        -1.342636         0.936897
 H         0.516671         1.203842         1.051682
 H        -0.180975         0.745080        -0.780326
 H        -0.346478        -0.361773         0.671560
 H         2.286316        -2.216037        -1.311972
 H         1.049803        -1.558226        -2.350179
 H         2.193965         0.739773        -1.701473
 H         4.875306         0.604207         0.950498
 H         4.149141        -2.622051         0.738975
 H         4.936901        -1.758016         2.122447
 H         3.051741        -0.363531         2.277385
