19
Iteration:  3471
 C         0.258526         0.283766         0.119366
 C         1.493449        -0.504271        -0.176687
 C         1.574180        -1.187966        -1.572815
 C         2.637545        -0.131443        -1.248845
 O         3.875068        -0.619127        -0.830645
 C         4.195563        -0.325019         0.457964
 C         4.462971        -1.647137         1.296615
 C         3.184421        -0.900098         1.507019
 O         1.992725        -1.355751         0.962471
 H         0.088893         1.043774        -0.531542
 H        -0.691197        -0.349838        -0.148989
 H         0.016747         0.503663         1.131086
 H         1.802919        -2.191371        -1.680440
 H         0.772140        -0.738489        -2.159313
 H         2.685014         0.865272        -1.578196
 H         4.464518         0.669653         0.667500
 H         4.624582        -2.400602         0.509930
 H         5.104716        -1.780265         2.230124
 H         3.011716        -0.506151         2.581872
