19
Iteration:  1480charge 0 multiplicity 1
 C         0.310216         0.392408         0.134694
 C         1.455329        -0.605754        -0.249641
 C         1.578080        -1.334285        -1.550055
 C         2.581578        -0.208408        -1.179543
 O         3.860128        -0.405406        -0.813799
 C         4.160343        -0.330127         0.580611
 C         4.527506        -1.686740         1.274240
 C         3.169385        -0.914046         1.489886
 O         1.976839        -1.337148         0.846435
 H         0.578244         1.119175         0.980701
 H         0.005587         0.880046        -0.702355
 H        -0.592483        -0.186559         0.504679
 H         1.738640        -2.396158        -1.544221
 H         0.849827        -1.185253        -2.337351
 H         2.323722         0.729860        -1.692119
 H         4.688794         0.512344         0.844296
 H         4.631528        -2.614617         0.698145
 H         5.341280        -1.787832         2.000504
 H         3.092801        -0.368761         2.443209
