19
Iteration:  1292charge 0 multiplicity 1
 C         0.249663         0.332543         0.095169
 C         1.472641        -0.564004        -0.244125
 C         1.670224        -1.369224        -1.477929
 C         2.558481        -0.162071        -1.138610
 O         3.963274        -0.339960        -0.874397
 C         4.234273        -0.375089         0.528769
 C         4.381973        -1.692552         1.171966
 C         3.183272        -0.903532         1.471836
 O         1.922020        -1.339948         0.988117
 H         0.397885         1.182842         0.814972
 H        -0.357610         0.698564        -0.744825
 H        -0.552828        -0.362599         0.760406
 H         2.035281        -2.392812        -1.531019
 H         0.918159        -1.217796        -2.261521
 H         2.388454         0.653167        -1.922547
 H         4.754831         0.481231         0.804525
 H         4.485545        -2.545543         0.503199
 H         5.063118        -1.740112         2.023135
 H         3.138225        -0.489329         2.571654
