19
Iteration:  3417charge 0 multiplicity 1
 C         0.397605         0.272443         0.184249
 C         1.500492        -0.591446        -0.186553
 C         1.666717        -1.350661        -1.586720
 C         2.466508        -0.112352        -1.246750
 O         3.907375        -0.332986        -0.893294
 C         4.128526        -0.366902         0.506695
 C         4.326580        -1.806674         1.280425
 C         3.178189        -0.811508         1.532361
 O         2.026141        -1.332431         0.939238
 H         0.021593         0.744812        -0.731536
 H        -0.634216        -0.084240         0.697019
 H         0.858309         1.213182         0.604010
 H         2.209616        -2.214284        -1.699509
 H         0.826457        -1.180277        -2.272234
 H         2.438457         0.764080        -1.823565
 H         4.769280         0.310201         0.898225
 H         4.045237        -2.749499         0.824726
 H         5.083572        -2.010744         2.122222
 H         2.911049        -0.360375         2.561314
