19
Iteration:  1188charge 0 multiplicity 1
 C         0.301339         0.234242         0.190190
 C         1.474297        -0.573805        -0.269754
 C         1.582448        -1.275843        -1.609666
 C         2.531786        -0.086450        -1.173973
 O         3.857124        -0.601057        -0.839634
 C         4.184444        -0.347622         0.528202
 C         4.529450        -1.584238         1.334594
 C         3.118016        -0.862988         1.499205
 O         1.986990        -1.344745         0.877765
 H         0.711706         0.806656         1.113172
 H         0.095152         1.190047        -0.463575
 H        -0.650769        -0.287415         0.424203
 H         2.103944        -2.243183        -1.631968
 H         0.908136        -0.951001        -2.433283
 H         2.447157         0.809104        -1.755746
 H         4.767775         0.660771         0.741524
 H         4.578041        -2.401469         0.592457
 H         5.266997        -1.606352         2.151056
 H         3.039143        -0.315723         2.387023
