19
Iteration:   595
 C         0.420102         0.317866         0.311180
 C         1.504774        -0.613855        -0.237245
 C         1.529569        -1.162408        -1.573584
 C         2.634826        -0.198278        -1.231524
 O         3.885322        -0.653957        -0.831486
 C         4.112669        -0.285451         0.494550
 C         4.483902        -1.487339         1.404486
 C         3.008573        -0.845513         1.415129
 O         2.015052        -1.508560         0.779295
 H         1.010119         0.967197         1.074025
 H         0.026301         0.953753        -0.410997
 H        -0.431733        -0.080937         0.886581
 H         1.890317        -2.217841        -1.664161
 H         0.890787        -0.945117        -2.458192
 H         2.558692         0.771597        -1.706885
 H         4.315392         0.889386         0.671581
 H         4.580835        -2.382708         0.760818
 H         5.244403        -1.121317         2.098374
 H         2.615226        -0.374647         2.304192
