19
Iteration:   193charge 0 multiplicity 1
 C         0.241611         0.273923         0.052809
 C         1.437185        -0.552289        -0.269224
 C         1.588581        -1.327396        -1.553370
 C         2.509395        -0.171056        -1.220425
 O         3.839233        -0.424393        -0.863692
 C         4.262685        -0.402585         0.544091
 C         4.510155        -1.739697         1.246200
 C         3.210702        -0.843436         1.537099
 O         1.988383        -1.239548         1.019061
 H         0.485519         1.254583         0.450012
 H        -0.388177         0.381972        -0.842074
 H        -0.295675        -0.303500         0.776806
 H         2.060461        -2.291201        -1.495223
 H         0.877429        -1.190871        -2.365097
 H         2.487684         0.891365        -1.452292
 H         4.964450         0.408891         0.653908
 H         4.401270        -2.749989         0.812737
 H         5.317179        -1.668891         2.031063
 H         3.159859        -0.377319         2.619910
