19
Iteration:  3366charge 0 multiplicity 1
 C         0.155354         0.405352         0.181544
 C         1.441085        -0.522306        -0.220245
 C         1.664186        -1.263592        -1.519026
 C         2.576393        -0.166395        -1.171583
 O         3.900033        -0.527334        -0.869269
 C         4.246427        -0.360810         0.539629
 C         4.491209        -1.646730         1.301756
 C         3.164089        -0.980923         1.465722
 O         1.972192        -1.382608         0.834856
 H        -0.570363         0.659316        -0.681137
 H        -0.297932        -0.140479         0.944114
 H         0.466452         1.468650         0.409353
 H         2.117356        -2.215140        -1.535448
 H         0.887391        -1.087551        -2.270485
 H         2.569285         0.858308        -1.597663
 H         4.655454         0.599882         1.028350
 H         4.608113        -2.376461         0.492453
 H         5.233789        -1.786683         2.185343
 H         2.949406        -0.426464         2.360150
