19
Iteration:  2806charge 0 multiplicity 1
 C         0.375789         0.281130         0.148211
 C         1.489744        -0.639207        -0.211342
 C         1.514580        -1.218871        -1.597926
 C         2.527151        -0.188556        -1.167765
 O         3.872247        -0.632348        -0.855957
 C         4.168686        -0.377788         0.475604
 C         4.503701        -1.535109         1.415420
 C         3.169632        -0.784068         1.455571
 O         2.007939        -1.349304         0.846693
 H         0.153262         0.046911         1.252510
 H         0.745385         1.278819         0.238117
 H        -0.623865         0.343330        -0.221295
 H         1.717739        -2.313489        -1.738007
 H         0.627414        -0.868501        -2.271178
 H         2.424251         0.823850        -1.589285
 H         4.754345         0.461155         0.562219
 H         4.499225        -2.461116         0.887753
 H         5.187076        -1.290506         2.186531
 H         2.882138        -0.197892         2.343718
