19
Iteration:   209charge 0 multiplicity 1
 C         0.271835         0.257109         0.029152
 C         1.518179        -0.627656        -0.141758
 C         1.580188        -1.300012        -1.505241
 C         2.451507        -0.071217        -1.169201
 O         3.878698        -0.521800        -0.826192
 C         4.238332        -0.326299         0.510142
 C         4.430650        -1.679679         1.263166
 C         3.277079        -0.885427         1.486436
 O         1.981162        -1.247232         0.943547
 H         0.670519         1.145487         0.589499
 H        -0.123303         0.580214        -0.984212
 H        -0.663797        -0.198809         0.506482
 H         2.102901        -2.294561        -1.594221
 H         0.663554        -1.336123        -2.125456
 H         2.429223         0.679967        -1.991941
 H         4.791042         0.586074         0.884932
 H         4.279671        -2.387955         0.467218
 H         5.100585        -1.912178         2.048778
 H         3.218932        -0.380329         2.377282
