19
Iteration:   431charge 0 multiplicity 1
 C         0.213150         0.263221        -0.010599
 C         1.498656        -0.638013        -0.101062
 C         1.683305        -1.305717        -1.395011
 C         2.538820        -0.168981        -1.152438
 O         3.911996        -0.418230        -0.891255
 C         4.243496        -0.360235         0.465684
 C         4.347781        -1.738097         1.190233
 C         3.229336        -0.747921         1.522290
 O         1.958211        -1.317102         0.952805
 H         0.387945         0.921756         0.919816
 H        -0.004716         0.933479        -0.831054
 H        -0.722893        -0.268317         0.262522
 H         2.080031        -2.300076        -1.512167
 H         0.947665        -1.193948        -2.178266
 H         2.406050         0.780007        -1.637680
 H         4.958128         0.559909         0.591585
 H         4.165204        -2.526721         0.480116
 H         5.099686        -1.896509         1.943982
 H         3.145581        -0.317238         2.472379
