19
Iteration:  2697charge 0 multiplicity 1
 C         0.279731         0.402074         0.086608
 C         1.548051        -0.570315        -0.204743
 C         1.541609        -1.319511        -1.465108
 C         2.621124        -0.148365        -1.136252
 O         3.824887        -0.660682        -0.909991
 C         4.109380        -0.228384         0.461901
 C         4.496363        -1.570465         1.260110
 C         3.190648        -0.857012         1.502825
 O         1.995437        -1.409682         0.939624
 H        -0.605573        -0.186742        -0.270999
 H         0.235884         0.477901         1.157399
 H         0.560092         1.262698        -0.478468
 H         2.102145        -2.226483        -1.332142
 H         0.633308        -1.389136        -2.171381
 H         2.484620         0.824626        -1.667104
 H         4.448701         0.730508         0.643834
 H         4.774757        -2.505668         0.721871
 H         5.200480        -1.426726         2.092080
 H         3.034436        -0.361842         2.486686
