19
Iteration:  4164
 C         0.253694         0.360433         0.186814
 C         1.424882        -0.514261        -0.226935
 C         1.603991        -1.271078        -1.545857
 C         2.535895        -0.161475        -1.174828
 O         3.878905        -0.496233        -0.836503
 C         4.270905        -0.394359         0.570987
 C         4.429604        -1.656971         1.319409
 C         3.168315        -0.864746         1.451253
 O         2.004305        -1.388548         0.801879
 H         0.024716         1.151690        -0.573386
 H        -0.593550        -0.243264         0.345862
 H         0.533073         0.924593         1.097551
 H         2.071227        -2.260192        -1.272174
 H         1.046252        -0.936713        -2.408991
 H         2.577235         0.648289        -1.837850
 H         4.931392         0.406638         0.742466
 H         4.263926        -2.517024         0.662707
 H         5.262783        -1.862957         2.102855
 H         2.940658        -0.549655         2.443021
