19
Iteration:  3523charge 0 multiplicity 1
 C         0.388429         0.343435         0.269202
 C         1.472570        -0.595290        -0.131298
 C         1.582058        -1.112939        -1.612792
 C         2.550909        -0.164105        -1.145927
 O         3.920185        -0.607687        -0.934938
 C         4.212622        -0.371054         0.393050
 C         4.366959        -1.545281         1.495545
 C         3.074001        -0.826283         1.406649
 O         2.046120        -1.531224         0.805492
 H        -0.012179         0.889196        -0.608735
 H        -0.403715        -0.291545         0.617071
 H         0.514310         0.947105         1.133820
 H         2.043929        -2.070623        -1.757967
 H         0.780863        -0.779120        -2.349378
 H         2.536255         0.857208        -1.555050
 H         4.871849         0.557410         0.726914
 H         4.213180        -2.509033         1.066935
 H         5.046087        -1.486484         2.362250
 H         2.621681        -0.070730         2.056182
