19
Iteration:    95charge 0 multiplicity 1
 C         0.395174         0.284703         0.162389
 C         1.511601        -0.622171        -0.156607
 C         1.509499        -1.179754        -1.457374
 C         2.578707        -0.181470        -1.128566
 O         3.895564        -0.666183        -0.881494
 C         4.213092        -0.303575         0.409365
 C         4.492549        -1.408056         1.328315
 C         3.058627        -0.910662         1.397813
 O         1.933937        -1.452027         0.843859
 H         0.537752         0.716331         1.120274
 H         0.454575         1.164879        -0.651090
 H        -0.581258        -0.172804         0.072819
 H         1.943178        -2.181225        -1.414870
 H         0.764048        -0.930530        -2.215227
 H         2.607243         0.892519        -1.440695
 H         4.675517         0.678431         0.553528
 H         4.736777        -2.446977         0.925681
 H         4.987558        -1.106988         2.294853
 H         2.927378        -0.309372         2.408554
