19
Iteration:  4070
 C         0.353841         0.267374         0.304594
 C         1.558132        -0.547225        -0.237918
 C         1.437003        -1.142612        -1.611773
 C         2.626011        -0.177835        -1.211669
 O         3.925199        -0.639696        -0.836883
 C         4.205666        -0.365933         0.509786
 C         4.327028        -1.590255         1.380797
 C         3.070325        -0.787522         1.428956
 O         2.095946        -1.401402         0.774850
 H        -0.110294         0.861775        -0.512482
 H        -0.299634        -0.677252         0.541655
 H         0.718809         0.963190         1.117568
 H         1.839708        -2.143011        -1.533154
 H         0.616324        -0.763092        -2.120079
 H         2.681075         0.814019        -1.721960
 H         4.862720         0.595647         0.706948
 H         4.195174        -2.490072         0.859009
 H         4.994444        -1.511748         2.215132
 H         2.672117        -0.294883         2.399830
