19
Iteration:  1134charge 0 multiplicity 1
 C         0.557879         0.405632         0.323310
 C         1.526607        -0.690025        -0.237593
 C         1.492475        -1.228801        -1.691823
 C         2.491112        -0.177377        -1.250414
 O         3.849647        -0.517531        -0.821688
 C         4.108196        -0.367188         0.505079
 C         4.502486        -1.499842         1.529661
 C         3.036566        -0.803557         1.416279
 O         2.042517        -1.561025         0.703652
 H         1.080618         1.096016         1.001961
 H        -0.052353         0.885056        -0.589746
 H        -0.285163        -0.158435         0.760146
 H         1.691447        -2.316567        -1.536064
 H         0.685526        -0.834530        -2.345234
 H         2.280646         0.761939        -1.651307
 H         4.605633         0.650426         0.808083
 H         4.749626        -2.580024         1.411386
 H         5.110716        -1.073213         2.361124
 H         2.714829        -0.277149         2.243016
