19
Iteration:  4704charge 0 multiplicity 1
 C         0.321557         0.366173         0.196234
 C         1.514786        -0.615571        -0.172007
 C         1.606714        -1.279310        -1.510357
 C         2.562051        -0.173365        -1.192889
 O         3.939423        -0.350311        -0.973610
 C         4.282392        -0.493494         0.488947
 C         4.299840        -1.698635         1.330743
 C         3.107086        -0.831510         1.423663
 O         1.935514        -1.348918         0.930156
 H         0.041104         0.711915        -0.752650
 H        -0.368086        -0.422912         0.473765
 H         0.683712         0.962416         1.059328
 H         2.150821        -2.170340        -1.465120
 H         0.930888        -1.196886        -2.384077
 H         2.398502         0.809482        -1.643731
 H         5.037708         0.331168         0.740476
 H         4.182567        -2.763711         1.020839
 H         4.989944        -1.516856         2.171376
 H         3.056804        -0.267893         2.418757
