19
Iteration:  3277
 C         0.388103         0.269699         0.345197
 C         1.458791        -0.517604        -0.223303
 C         1.449603        -1.231571        -1.573923
 C         2.593756        -0.102623        -1.312877
 O         3.893348        -0.599690        -0.915807
 C         4.238590        -0.356445         0.528333
 C         4.367066        -1.573452         1.495309
 C         3.080777        -0.832073         1.440181
 O         2.127890        -1.435630         0.725184
 H         0.422145         1.322883         0.048365
 H        -0.502018         0.034435        -0.093500
 H         0.344504         0.106836         1.450586
 H         1.923275        -2.210789        -1.478938
 H         0.679015        -1.176941        -2.239925
 H         2.581792         0.880964        -1.695345
 H         4.628850         0.654170         0.579650
 H         4.275926        -2.655795         1.127162
 H         5.042944        -1.501008         2.354636
 H         2.788251        -0.191182         2.318646
