19
Iteration:  4026
 C         0.286198         0.259593         0.233955
 C         1.426321        -0.606434        -0.205747
 C         1.567033        -1.116174        -1.637451
 C         2.585764        -0.012283        -1.068186
 O         3.844785        -0.751724        -0.892282
 C         4.248534        -0.418315         0.445276
 C         4.437927        -1.608257         1.435664
 C         3.157956        -0.742332         1.421228
 O         2.011119        -1.406074         0.817485
 H         0.130196         1.163488        -0.454990
 H        -0.680512        -0.436619         0.089102
 H         0.519477         0.676863         1.245237
 H         2.150399        -2.042451        -1.844220
 H         0.926754        -0.987595        -2.432743
 H         2.518346         1.019743        -1.396780
 H         4.966993         0.491151         0.576630
 H         4.528202        -2.591844         1.048996
 H         5.013372        -1.233591         2.275956
 H         3.150450        -0.041451         2.309495
