19
Iteration:  3629charge 0 multiplicity 1
 C         0.268315         0.343643         0.116037
 C         1.505308        -0.623296        -0.225189
 C         1.521408        -1.178443        -1.602534
 C         2.526296        -0.170404        -1.168698
 O         3.842440        -0.513480        -0.804089
 C         4.272645        -0.411175         0.505380
 C         4.439163        -1.664436         1.302834
 C         3.211084        -0.857855         1.565626
 O         2.015428        -1.371807         0.876689
 H         0.106561         1.132291        -0.759784
 H        -0.631278        -0.237786         0.055701
 H         0.668284         0.802541         1.078144
 H         1.848029        -2.187261        -1.957756
 H         0.847542        -0.835510        -2.400706
 H         2.644832         0.886558        -1.446081
 H         4.773153         0.444354         0.796757
 H         4.347469        -2.614762         0.883676
 H         5.237017        -1.605539         1.984629
 H         2.939976        -0.306362         2.406790
