19
Iteration:   973
 C         0.200269         0.278234         0.045354
 C         1.414299        -0.550400        -0.223636
 C         1.609882        -1.393298        -1.494653
 C         2.472181        -0.145100        -1.203672
 O         3.944265        -0.345198        -0.794175
 C         4.265720        -0.408769         0.552727
 C         4.502093        -1.732416         1.208157
 C         3.240566        -0.952281         1.488260
 O         1.959309        -1.190647         0.959142
 H         0.567651         1.072143         0.594501
 H        -0.268460         0.653237        -0.888113
 H        -0.713657        -0.214593         0.647259
 H         2.178367        -2.364097        -1.374960
 H         0.941693        -1.297991        -2.409228
 H         2.329204         0.686334        -1.953212
 H         4.715865         0.397360         0.955382
 H         4.310836        -2.595417         0.503894
 H         5.293501        -1.770458         2.039959
 H         3.168289        -0.558745         2.500605
