19
Iteration:  1829charge 0 multiplicity 1
 C         0.257051         0.306462        -0.066498
 C         1.472561        -0.562819        -0.122172
 C         1.641161        -1.382204        -1.512753
 C         2.530626        -0.183214        -1.100610
 O         3.859380        -0.259661        -0.858205
 C         4.247216        -0.364356         0.550200
 C         4.440609        -1.824748         1.200519
 C         3.270198        -0.901453         1.507402
 O         1.926230        -1.233604         0.973677
 H         0.487302         1.114077         0.574500
 H         0.102176         0.641236        -1.027173
 H        -0.618301        -0.193913         0.560538
 H         2.060703        -2.401652        -1.272033
 H         0.925120        -1.472077        -2.429736
 H         2.163713         0.750812        -1.557747
 H         4.973206         0.309091         0.743354
 H         4.197634        -2.387349         0.263580
 H         5.109750        -2.342138         1.915856
 H         3.154486        -0.587248         2.635020
