19
Iteration:  2135
 C         0.223406         0.187472         0.082215
 C         1.469694        -0.619963        -0.149040
 C         1.633720        -1.246937        -1.526206
 C         2.597641        -0.151418        -1.139510
 O         3.933613        -0.379608        -0.849340
 C         4.328128        -0.445437         0.485911
 C         4.274856        -1.733261         1.246916
 C         3.168165        -0.721571         1.479781
 O         1.988154        -1.309901         0.907362
 H         0.363191         0.592033         1.033818
 H         0.151976         1.053534        -0.531698
 H        -0.680278        -0.501161        -0.010285
 H         2.157097        -2.226386        -1.496448
 H         0.878122        -0.968714        -2.242939
 H         2.562518         0.867765        -1.545512
 H         5.014232         0.276625         0.670726
 H         3.939364        -2.501903         0.568319
 H         4.952710        -2.029961         2.074596
 H         3.007597        -0.175365         2.511742
