19
Iteration:   837
 C         0.344114         0.298192         0.302457
 C         1.530046        -0.664689        -0.283482
 C         1.508930        -1.151216        -1.775287
 C         2.522554        -0.086318        -1.192945
 O         3.795495        -0.717775        -0.821904
 C         4.175342        -0.329175         0.487151
 C         4.547528        -1.436630         1.487621
 C         3.140724        -0.809791         1.450282
 O         2.029013        -1.555435         0.861495
 H         0.500433         0.647696         1.412577
 H         0.497972         1.347464        -0.233716
 H        -0.618014        -0.106042         0.083978
 H         2.106435        -1.988119        -2.019113
 H         0.693468        -0.943844        -2.386335
 H         2.559800         0.862542        -1.652032
 H         4.699786         0.763039         0.627530
 H         4.581767        -2.400108         1.068465
 H         5.093925        -1.099566         2.287455
 H         2.897418        -0.002877         2.186966
