19
Iteration:   171
 C         0.207768         0.241178         0.175766
 C         1.463089        -0.598972        -0.155782
 C         1.679480        -1.283295        -1.493120
 C         2.571263        -0.162022        -1.183286
 O         3.995358        -0.431087        -0.908948
 C         4.245179        -0.412855         0.439986
 C         4.374565        -1.699068         1.256831
 C         3.189280        -0.821917         1.412591
 O         1.912350        -1.282590         0.971679
 H         0.418491         1.290871         0.348447
 H        -0.454038         0.265522        -0.712188
 H        -0.309443        -0.120032         1.043991
 H         2.115112        -2.237615        -1.292125
 H         0.961313        -1.177535        -2.328113
 H         2.423037         0.808474        -1.746588
 H         4.682835         0.532928         0.715960
 H         4.125383        -2.706839         0.857380
 H         5.157852        -1.740024         2.080107
 H         3.031913        -0.076116         2.313406
