19
Iteration:  2618charge 0 multiplicity 1
 C         0.285266         0.237059         0.137133
 C         1.530568        -0.552861        -0.215734
 C         1.648792        -1.282810        -1.460813
 C         2.483867        -0.143225        -1.202012
 O         3.882012        -0.526398        -0.903602
 C         4.221621        -0.421439         0.404036
 C         4.365124        -1.629147         1.300023
 C         3.175514        -0.793515         1.500674
 O         2.027335        -1.270369         0.940024
 H        -0.527912        -0.479594         0.361118
 H         0.463329         0.860003         1.052356
 H        -0.171497         0.720789        -0.721181
 H         2.247367        -2.297243        -1.368109
 H         0.884859        -1.270462        -2.284244
 H         2.461480         0.875867        -1.664271
 H         4.856106         0.321533         0.718963
 H         3.936511        -2.600611         0.969960
 H         5.177116        -1.597019         2.094484
 H         3.035891        -0.174190         2.415829
