19
Iteration:  3368
 C         0.173738         0.409111         0.191028
 C         1.432897        -0.544896        -0.208927
 C         1.664233        -1.273783        -1.516758
 C         2.588673        -0.163269        -1.158475
 O         3.909917        -0.515225        -0.874951
 C         4.257758        -0.377881         0.545988
 C         4.471842        -1.641961         1.300876
 C         3.169336        -0.972471         1.443651
 O         1.963262        -1.370780         0.831130
 H        -0.579747         0.611077        -0.615644
 H        -0.361246        -0.082067         0.913367
 H         0.409762         1.445592         0.401375
 H         2.164338        -2.322012        -1.541530
 H         0.894016        -1.056275        -2.281022
 H         2.501241         0.878452        -1.644322
 H         4.637831         0.672863         1.062961
 H         4.593136        -2.366886         0.493094
 H         5.157570        -1.811344         2.132333
 H         2.951734        -0.441536         2.330375
