19
Iteration:  1646charge 0 multiplicity 1
 C         0.466792         0.355210         0.325373
 C         1.542609        -0.592448        -0.174455
 C         1.577819        -1.181842        -1.602648
 C         2.564559        -0.193542        -1.206140
 O         3.933579        -0.513340        -0.931510
 C         4.081341        -0.378819         0.496954
 C         4.365872        -1.457101         1.463521
 C         3.007181        -0.899647         1.428378
 O         2.025061        -1.610946         0.779852
 H         0.957302         1.021651         1.208108
 H         0.358672         1.117246        -0.519640
 H        -0.534993         0.102706         0.561533
 H         1.784031        -2.272911        -1.853602
 H         0.874195        -0.780704        -2.441891
 H         2.519573         0.792414        -1.661319
 H         4.458566         0.722295         0.617211
 H         4.665132        -2.405546         0.953664
 H         5.123477        -1.243525         2.283136
 H         2.620998        -0.328744         2.223503
