19
Iteration:  2439
 C         0.367432         0.240507         0.097976
 C         1.523918        -0.653612        -0.214453
 C         1.499347        -1.148704        -1.613285
 C         2.590090        -0.063868        -1.128468
 O         3.898949        -0.643919        -0.842326
 C         4.108999        -0.350351         0.484748
 C         4.464497        -1.557983         1.328001
 C         3.160627        -0.857476         1.486811
 O         1.965472        -1.377435         0.953392
 H         0.614169         1.269263         0.464612
 H        -0.179467         0.538260        -0.850403
 H        -0.459511        -0.352416         0.659760
 H         1.992277        -2.131522        -1.815572
 H         0.686988        -0.749636        -2.170429
 H         2.827482         0.886089        -1.625446
 H         4.765568         0.668207         0.695169
 H         4.543333        -2.514495         0.736369
 H         5.309957        -1.525904         2.062677
 H         2.925996        -0.480909         2.495179
