19
Iteration:    90charge 0 multiplicity 1
 C         0.407477         0.306931         0.156560
 C         1.524499        -0.609173        -0.162052
 C         1.519689        -1.158247        -1.464778
 C         2.601146        -0.187737        -1.125510
 O         3.874402        -0.685691        -0.874703
 C         4.121981        -0.296420         0.428158
 C         4.496176        -1.442619         1.333951
 C         3.075494        -0.848343         1.386798
 O         1.970993        -1.496506         0.853821
 H         0.490458         0.729091         1.224795
 H         0.429156         1.119524        -0.481387
 H        -0.589054        -0.188492        -0.031217
 H         1.893154        -2.184489        -1.349281
 H         0.827892        -0.929083        -2.267102
 H         2.599330         0.841955        -1.453963
 H         4.649261         0.712166         0.429077
 H         4.794377        -2.361689         0.880324
 H         4.987328        -1.131061         2.226243
 H         2.870915        -0.305308         2.236715
