19
Iteration:  1360charge 0 multiplicity 1
 C         0.371819         0.280418         0.232006
 C         1.462575        -0.623083        -0.245788
 C         1.536603        -1.227876        -1.626289
 C         2.582172        -0.130912        -1.088664
 O         3.919335        -0.599326        -0.875045
 C         4.197010        -0.348145         0.482549
 C         4.481575        -1.538507         1.344058
 C         3.075818        -0.823250         1.396272
 O         1.960898        -1.404303         0.865768
 H         0.623153         0.776464         1.266426
 H         0.063560         1.078495        -0.415161
 H        -0.477164        -0.381297         0.621497
 H         2.026359        -2.196656        -1.766985
 H         0.771641        -1.115205        -2.388879
 H         2.615512         0.906455        -1.494117
 H         4.631657         0.637274         0.758712
 H         4.492110        -2.558398         0.977818
 H         5.187127        -1.401710         2.158867
 H         2.929309        -0.183087         2.214669
