19
Iteration:  2306
 C         0.217005         0.294093         0.047441
 C         1.544831        -0.566153        -0.202862
 C         1.552824        -1.261411        -1.499207
 C         2.599980        -0.069003        -1.153083
 O         3.872482        -0.602421        -0.835954
 C         4.215078        -0.342735         0.549177
 C         4.570312        -1.645795         1.235582
 C         3.150168        -0.909945         1.497372
 O         1.927749        -1.323352         0.958228
 H         0.154373         0.756636         1.095215
 H         0.247485         0.983868        -0.764453
 H        -0.608684        -0.339462        -0.230021
 H         1.896726        -2.271332        -1.712639
 H         0.791914        -0.957875        -2.249406
 H         2.504590         0.843419        -1.676499
 H         4.877342         0.645488         0.746249
 H         4.408845        -2.499561         0.671636
 H         5.286343        -1.540859         1.983235
 H         2.874680        -0.226217         2.216415
