19
Iteration:  4754charge 0 multiplicity 1
 C         0.122093         0.205178         0.127738
 C         1.469947        -0.523426        -0.164249
 C         1.657493        -1.070279        -1.607612
 C         2.606900        -0.082161        -1.069254
 O         3.814418        -0.762571        -0.783977
 C         4.318618        -0.383424         0.452449
 C         4.438002        -1.625497         1.317105
 C         3.203248        -0.806056         1.398808
 O         1.971077        -1.312336         0.896770
 H        -0.006356         0.759171        -0.824936
 H        -0.636792        -0.541326         0.294243
 H         0.544090         0.809144         0.888582
 H         1.819362        -2.208442        -1.732932
 H         0.895817        -0.681370        -2.237177
 H         2.784158         0.891423        -1.626101
 H         4.980853         0.518542         0.425439
 H         4.439377        -2.643387         0.846239
 H         5.117222        -1.523194         2.163417
 H         3.133727        -0.184533         2.265060
