19
Iteration:  3517
 C         0.358428         0.348236         0.249450
 C         1.477518        -0.585347        -0.122787
 C         1.606123        -1.132977        -1.676738
 C         2.541022        -0.131606        -1.090034
 O         3.878387        -0.648437        -0.944121
 C         4.236754        -0.351911         0.429510
 C         4.377028        -1.528914         1.473839
 C         3.113740        -0.814166         1.384975
 O         2.042057        -1.533005         0.834413
 H        -0.052102         0.955925        -0.558928
 H        -0.662420        -0.173607         0.455184
 H         0.537923         0.899069         1.235701
 H         2.201165        -2.071674        -1.793672
 H         0.860496        -0.749080        -2.277626
 H         2.473728         0.806963        -1.631001
 H         4.805870         0.456678         0.687551
 H         4.325184        -2.594589         1.038493
 H         4.997354        -1.615533         2.377794
 H         2.701549        -0.087365         2.157622
