19
Iteration:  1329
 C         0.306203         0.377622         0.038293
 C         1.456625        -0.619275        -0.197207
 C         1.554172        -1.339014        -1.548039
 C         2.528116        -0.105979        -1.173117
 O         3.863481        -0.439472        -0.875168
 C         4.180980        -0.337742         0.554937
 C         4.471469        -1.651787         1.254435
 C         3.137855        -0.911285         1.566322
 O         2.052016        -1.423252         0.935457
 H         0.724536         1.117951         0.813413
 H         0.049090         0.991602        -0.846235
 H        -0.427829        -0.209067         0.469481
 H         2.180239        -2.238390        -1.616097
 H         0.660821        -1.155483        -2.135882
 H         2.434239         0.820384        -1.692364
 H         4.777314         0.639942         0.848598
 H         4.418718        -2.508712         0.580263
 H         5.322169        -1.569297         1.934397
 H         3.023974        -0.464755         2.455393
