19
Iteration:  2132charge 0 multiplicity 1
 C         0.213730         0.184109         0.075381
 C         1.455167        -0.582334        -0.152975
 C         1.644800        -1.245217        -1.527618
 C         2.592321        -0.146133        -1.131085
 O         3.932718        -0.381503        -0.872037
 C         4.332449        -0.470232         0.513511
 C         4.284514        -1.732955         1.264072
 C         3.173526        -0.730099         1.468538
 O         2.000529        -1.301163         0.920411
 H         0.252502         0.592573         1.150597
 H         0.135802         1.022965        -0.590980
 H        -0.650140        -0.575835        -0.007691
 H         2.169329        -2.194741        -1.519991
 H         0.848506        -1.037847        -2.289523
 H         2.467138         0.810911        -1.617160
 H         5.139576         0.372389         0.770963
 H         3.873831        -2.498497         0.646996
 H         5.007263        -2.115474         1.895030
 H         2.909794        -0.196950         2.392652
