19
Iteration:  3225
 C         0.437365         0.366093         0.180993
 C         1.418610        -0.661018        -0.138871
 C         1.636418        -1.235768        -1.606552
 C         2.557581        -0.081414        -1.158027
 O         3.842784        -0.600534        -0.925926
 C         4.104785        -0.333395         0.531660
 C         4.534009        -1.504989         1.327843
 C         3.136617        -0.908536         1.480359
 O         1.878494        -1.464340         0.884165
 H         0.824607         1.418743         0.266363
 H        -0.432951         0.396554        -0.496085
 H         0.116762         0.184481         1.215506
 H         2.210987        -2.122967        -1.818586
 H         0.765690        -1.163918        -2.176325
 H         2.546884         0.920446        -1.604805
 H         4.853531         0.581589         0.475866
 H         4.741988        -2.370014         0.600863
 H         5.331490        -1.454494         2.086065
 H         3.023552        -0.479471         2.430826
