19
Iteration:  4321charge 0 multiplicity 1
 C         0.540633         0.394392         0.301160
 C         1.547421        -0.574400        -0.244681
 C         1.609176        -1.305279        -1.566278
 C         2.499114        -0.103760        -1.192160
 O         3.860670        -0.450170        -0.918816
 C         4.100192        -0.379455         0.463350
 C         4.344086        -1.584499         1.443076
 C         3.046256        -0.888769         1.476172
 O         2.005978        -1.529978         0.769544
 H         0.356471         1.054085        -0.515607
 H        -0.311941         0.011379         0.769195
 H         1.059142         1.000054         1.123405
 H         2.083195        -2.333214        -1.622604
 H         0.905787        -1.259867        -2.383657
 H         2.324186         0.869455        -1.775965
 H         4.849808         0.564508         0.657896
 H         4.280774        -2.536137         0.898106
 H         5.105794        -1.384822         2.198934
 H         2.672284        -0.433415         2.583051
