19
Iteration:  3213charge 0 multiplicity 1
 C         0.393847         0.403233         0.166905
 C         1.536501        -0.638536        -0.237727
 C         1.650103        -1.236939        -1.561540
 C         2.509745        -0.097044        -1.171003
 O         3.783725        -0.570472        -0.879852
 C         4.109050        -0.349566         0.456473
 C         4.551863        -1.578343         1.265186
 C         3.120861        -0.924768         1.524644
 O         1.960077        -1.446201         0.941654
 H         0.835763         1.418849         0.214165
 H        -0.357766         0.399509        -0.590858
 H        -0.157207         0.075095         1.044720
 H         2.222819        -2.166362        -1.639712
 H         0.907214        -1.065348        -2.224345
 H         2.404808         0.915327        -1.501648
 H         4.545280         0.719081         0.748947
 H         4.543641        -2.653412         0.851311
 H         5.255770        -1.269600         2.035192
 H         2.869566        -0.477343         2.476980
