19
Iteration:  3817charge 0 multiplicity 1
 C         0.431243         0.318689         0.230974
 C         1.474327        -0.602009        -0.219653
 C         1.577432        -1.155348        -1.607368
 C         2.531490        -0.132983        -1.091314
 O         3.843559        -0.537528        -0.927904
 C         4.231924        -0.479525         0.458334
 C         4.418533        -1.578734         1.473490
 C         3.122931        -0.813321         1.410567
 O         1.985400        -1.483523         0.812225
 H         0.135844         1.210001        -0.417831
 H        -0.582448        -0.256154         0.169724
 H         0.571520         0.702151         1.306904
 H         1.988244        -2.057279        -1.769836
 H         0.855068        -0.964291        -2.382413
 H         2.606346         0.879729        -1.355039
 H         4.726245         0.454743         0.610393
 H         4.418362        -2.640267         1.154830
 H         5.142438        -1.126497         2.269771
 H         2.858565         0.016588         2.118150
