19
Iteration:  2101charge 0 multiplicity 1
 C         0.124674         0.121753         0.036797
 C         1.455382        -0.480289        -0.195523
 C         1.718166        -1.170134        -1.459213
 C         2.621958        -0.083479        -1.194677
 O         3.876273        -0.391818        -0.886855
 C         4.294324        -0.547703         0.475401
 C         4.367467        -1.772950         1.283998
 C         3.214327        -0.888576         1.472358
 O         1.962161        -1.168075         0.982288
 H         0.204029         0.674677         0.947473
 H        -0.184256         0.702765        -0.758031
 H        -0.699543        -0.643962         0.302837
 H         2.297479        -2.086585        -1.524418
 H         0.881949        -1.307870        -2.176014
 H         2.558302         0.846690        -1.728160
 H         5.035837         0.159457         0.671811
 H         4.322367        -2.732778         0.858754
 H         5.054129        -1.732276         2.044928
 H         2.999181        -0.475495         2.525299
