19
Iteration:  3500charge 0 multiplicity 1
 C         0.321920         0.285572         0.199562
 C         1.422868        -0.661198        -0.250707
 C         1.612272        -1.116809        -1.630698
 C         2.576788        -0.094119        -1.138765
 O         3.807557        -0.682312        -0.809192
 C         4.216160        -0.410833         0.446234
 C         4.487129        -1.584648         1.358754
 C         3.142461        -0.796516         1.482700
 O         2.012596        -1.383161         0.844116
 H         0.260234         1.168724        -0.574268
 H        -0.628785        -0.150307         0.271757
 H         0.442593         0.570402         1.255625
 H         2.054428        -2.106287        -1.751794
 H         0.799704        -0.861969        -2.416495
 H         2.627136         1.025853        -1.228538
 H         4.808499         0.623525         0.591383
 H         4.467227        -2.521827         0.902845
 H         5.212230        -1.357243         2.125612
 H         2.915403        -0.237765         2.377589
