19
Iteration:  3511charge 0 multiplicity 1
 C         0.275127         0.326309         0.254325
 C         1.499058        -0.617278        -0.177285
 C         1.636043        -1.153432        -1.680800
 C         2.544223        -0.087690        -1.063101
 O         3.830649        -0.678729        -0.921685
 C         4.237461        -0.393404         0.494757
 C         4.404246        -1.550429         1.422287
 C         3.152610        -0.771825         1.398158
 O         2.021348        -1.505166         0.841767
 H         0.212820         1.219392        -0.520612
 H        -0.656200        -0.150432         0.312011
 H         0.644530         0.884733         1.113748
 H         2.068521        -2.125248        -1.865701
 H         0.832471        -0.795064        -2.442544
 H         2.494941         0.941626        -1.526354
 H         4.805417         0.648134         0.554074
 H         4.405922        -2.495993         0.992043
 H         5.007601        -1.486762         2.320687
 H         3.004528        -0.166165         2.279377
