19
Iteration:  4997
 C         0.348883         0.435986         0.070165
 C         1.471823        -0.548499        -0.185824
 C         1.590762        -1.285024        -1.548233
 C         2.574583        -0.193533        -1.174126
 O         3.901843        -0.483799        -0.885940
 C         4.204519        -0.458936         0.540436
 C         4.506415        -1.620156         1.235445
 C         3.154167        -0.934270         1.502993
 O         1.860739        -1.377989         0.979756
 H         0.159650         1.009542        -0.833259
 H        -0.583717        -0.026384         0.532555
 H         0.916863         1.148863         0.754918
 H         2.015253        -2.203097        -1.807854
 H         0.860675        -1.052388        -2.313749
 H         2.398292         0.826280        -1.545196
 H         4.723943         0.481685         0.794726
 H         4.612551        -2.519701         0.687189
 H         5.038564        -1.433411         2.124953
 H         2.877779        -0.619809         2.537114
