19
Iteration:    17
 C         0.283261         0.347052         0.296911
 C         1.461722        -0.603837        -0.150497
 C         1.600397        -1.211693        -1.488332
 C         2.611635        -0.184260        -1.238621
 O         4.026359        -0.627371        -1.041066
 C         4.142645        -0.332148         0.440489
 C         4.323092        -1.471359         1.356412
 C         3.032426        -0.760080         1.547365
 O         2.049616        -1.539809         0.830574
 H         0.544209         0.875719         1.301889
 H         0.217206         1.189793        -0.466411
 H        -0.715049        -0.213871         0.255843
 H         1.932078        -2.265505        -1.365576
 H         0.824207        -1.015942        -2.243976
 H         2.662896         0.831144        -1.721425
 H         4.916553         0.470496         0.588752
 H         4.390462        -2.535184         1.009106
 H         5.186022        -1.251888         2.016814
 H         2.805135        -0.250320         2.539399
