19
Iteration:   627
 C         0.382745         0.301749         0.135042
 C         1.483597        -0.645326        -0.204277
 C         1.527794        -1.246183        -1.564410
 C         2.520770        -0.153888        -1.151777
 O         3.820379        -0.521954        -0.852290
 C         4.270262        -0.364387         0.469913
 C         4.481664        -1.539454         1.402072
 C         3.086526        -0.844563         1.468663
 O         2.023770        -1.440246         0.823716
 H         0.669452         0.852197         1.155989
 H         0.353717         1.175107        -0.399822
 H        -0.682068        -0.136718         0.242728
 H         1.970368        -2.272847        -1.671774
 H         0.837532        -0.954786        -2.391468
 H         2.490678         0.846741        -1.598199
 H         4.618901         0.706153         0.868603
 H         4.458259        -2.566847         0.946914
 H         5.373122        -1.516053         2.072263
 H         2.800487        -0.266651         2.286062
