19
Iteration:  4888charge 0 multiplicity 1
 C         0.358774         0.417982         0.123803
 C         1.457049        -0.613260        -0.136613
 C         1.596032        -1.162671        -1.636116
 C         2.578287        -0.156886        -1.131890
 O         3.821469        -0.680597        -0.788905
 C         4.217867        -0.343524         0.513139
 C         4.452397        -1.595032         1.347823
 C         3.105215        -0.848874         1.446320
 O         2.036139        -1.456798         0.840463
 H        -0.040573         0.768003        -0.780916
 H        -0.554911         0.073930         0.556023
 H         0.403734         1.274931         0.783449
 H         1.917959        -2.222048        -1.862576
 H         0.878292        -0.749166        -2.243253
 H         2.653662         0.873033        -1.575761
 H         4.671590         0.709925         0.636136
 H         4.313560        -2.495807         0.747737
 H         5.267459        -1.734930         2.044165
 H         3.019898        -0.112168         2.277038
