19
Iteration:  3797charge 0 multiplicity 1
 C         0.431097         0.346827         0.275039
 C         1.521529        -0.593873        -0.169454
 C         1.551118        -1.188137        -1.522902
 C         2.570644        -0.076816        -1.202165
 O         3.900892        -0.589601        -0.918075
 C         4.157112        -0.353869         0.512338
 C         4.318425        -1.550913         1.409462
 C         3.044049        -0.849705         1.425022
 O         2.085286        -1.525464         0.742445
 H         0.232772         0.919494        -0.626216
 H        -0.644379         0.004398         0.582910
 H         0.949846         0.853722         1.105926
 H         1.947678        -2.130577        -1.630751
 H         0.760513        -1.204953        -2.253915
 H         2.478629         0.905184        -1.644142
 H         4.813231         0.584948         0.688575
 H         4.197246        -2.542889         0.896028
 H         5.062775        -1.436063         2.269568
 H         2.736891        -0.348338         2.406671
