19
Iteration:  4372
 C         0.277469         0.234790         0.177944
 C         1.481679        -0.527039        -0.225353
 C         1.536061        -1.051826        -1.626292
 C         2.625727        -0.152380        -1.215009
 O         3.819115        -0.744620        -0.768888
 C         4.217653        -0.327799         0.523675
 C         4.486392        -1.573574         1.284210
 C         3.167006        -0.850532         1.487374
 O         2.053135        -1.367525         0.877725
 H        -0.029953         0.972308        -0.649572
 H        -0.517406        -0.538823         0.293190
 H         0.236328         0.856183         1.179756
 H         1.724126        -2.126941        -1.951907
 H         0.688734        -0.824054        -2.259355
 H         2.480697         0.926417        -1.447708
 H         4.817104         0.560541         0.649641
 H         4.479355        -2.530593         0.765286
 H         5.159294        -1.566289         2.160935
 H         2.945806        -0.386167         2.361497
