19
Iteration:  2373
 C         0.314358         0.266991         0.143226
 C         1.517132        -0.520447        -0.227254
 C         1.586912        -1.384674        -1.516827
 C         2.621933        -0.186606        -1.211532
 O         3.948414        -0.243473        -0.894437
 C         4.194310        -0.387969         0.522285
 C         4.293522        -1.751027         1.294484
 C         3.165075        -0.870601         1.477662
 O         1.983134        -1.313306         0.956199
 H         0.473576         1.240544         0.733631
 H        -0.311136         0.425373        -0.772598
 H        -0.469417        -0.459012         0.594796
 H         1.922796        -2.407256        -1.303733
 H         0.900485        -1.276317        -2.411953
 H         2.406471         0.593547        -1.944106
 H         5.120061         0.304178         0.923064
 H         3.871043        -2.653121         0.741525
 H         5.172710        -1.894992         1.934615
 H         3.132913        -0.363382         2.454154
