19
Iteration:  1714charge 0 multiplicity 1
 C         0.382720         0.237591         0.211928
 C         1.539525        -0.602918        -0.239672
 C         1.570800        -1.127107        -1.564787
 C         2.563545        -0.073356        -1.173699
 O         3.924416        -0.630005        -0.872485
 C         4.197765        -0.374166         0.499399
 C         4.424209        -1.495307         1.379591
 C         3.061377        -0.855859         1.471233
 O         1.924356        -1.499483         0.822488
 H         0.804859         0.954892         1.026425
 H        -0.058262         0.873515        -0.684184
 H        -0.414694        -0.295582         0.741497
 H         1.893785        -2.134644        -1.611640
 H         0.902796        -0.804654        -2.322288
 H         2.671435         0.895361        -1.614272
 H         4.692025         0.694418         0.709619
 H         4.475761        -2.407889         0.799207
 H         5.130911        -1.357629         2.152808
 H         2.878330        -0.290351         2.311400
