19
Iteration:  1085charge 0 multiplicity 1
 C         0.390925         0.255112         0.262723
 C         1.542803        -0.564987        -0.182812
 C         1.557790        -1.167173        -1.578500
 C         2.657451        -0.199127        -1.154218
 O         3.875130        -0.652061        -0.833168
 C         4.155057        -0.281222         0.455177
 C         4.392714        -1.473521         1.301181
 C         3.032112        -0.869959         1.440557
 O         1.971834        -1.459061         0.825400
 H         0.728666         1.128645         0.976666
 H        -0.050060         0.594864        -0.632907
 H        -0.448586        -0.340691         0.757723
 H         1.969213        -2.140935        -1.505748
 H         0.979485        -0.867908        -2.431753
 H         2.757563         0.850379        -1.657956
 H         4.777102         0.666453         0.677101
 H         4.546542        -2.374215         0.723654
 H         5.085662        -1.421008         2.109279
 H         2.792175        -0.143437         2.297471
