19
Iteration:  1906charge 0 multiplicity 1
 C         0.356489         0.255907         0.203686
 C         1.460559        -0.576895        -0.233032
 C         1.624596        -1.174149        -1.572580
 C         2.589761        -0.172696        -1.176585
 O         3.861599        -0.611708        -0.847238
 C         4.159577        -0.359616         0.553627
 C         4.473504        -1.602597         1.301193
 C         3.109247        -0.802013         1.495933
 O         2.007734        -1.348020         0.812880
 H         0.674983         0.831970         0.965545
 H        -0.041552         0.791497        -0.590240
 H        -0.466642        -0.481153         0.469022
 H         1.855545        -2.261217        -1.759803
 H         0.855510        -0.913733        -2.319536
 H         2.368193         0.822989        -1.510044
 H         4.620458         0.519419         0.845845
 H         4.155767        -2.534616         0.909849
 H         5.301237        -1.526966         1.984867
 H         2.924392        -0.136006         2.404832
