19
Iteration:  3820charge 0 multiplicity 1
 C         0.400591         0.319280         0.225574
 C         1.465824        -0.595546        -0.203698
 C         1.572278        -1.127231        -1.627668
 C         2.547005        -0.151557        -1.100232
 O         3.836842        -0.541652        -0.927807
 C         4.233423        -0.499372         0.464354
 C         4.439080        -1.563332         1.486227
 C         3.123955        -0.817657         1.412243
 O         1.985646        -1.469265         0.831075
 H         0.198180         1.122020        -0.437129
 H        -0.606049        -0.233101         0.185184
 H         0.610216         0.542931         1.273095
 H         1.966773        -2.129595        -1.841357
 H         0.933021        -0.922123        -2.462347
 H         2.523974         0.905012        -1.444210
 H         4.772011         0.520245         0.633215
 H         4.417618        -2.607468         1.140910
 H         5.183476        -1.238644         2.200313
 H         2.891916         0.005434         2.135174
