19
Iteration:  2042charge 0 multiplicity 1
 C         0.356635         0.332709         0.040204
 C         1.510484        -0.577353        -0.219886
 C         1.620852        -1.293201        -1.525445
 C         2.544825        -0.117411        -1.125269
 O         3.835711        -0.411143        -0.836442
 C         4.172461        -0.383852         0.513396
 C         4.497098        -1.687385         1.260683
 C         3.145800        -0.917366         1.500318
 O         1.917654        -1.389014         0.911416
 H         0.738184         1.363708         0.437892
 H        -0.240474         0.646635        -0.886588
 H        -0.351505        -0.130558         0.698400
 H         2.250924        -2.183187        -1.349864
 H         0.829363        -1.298746        -2.235217
 H         2.502637         0.929857        -1.467276
 H         4.842765         0.618274         0.726442
 H         4.340753        -2.575636         0.615719
 H         5.111187        -1.752699         2.208220
 H         3.178049        -0.514570         2.445290
