19
Iteration:  2889charge 0 multiplicity 1
 C         0.292379         0.277164         0.196425
 C         1.486542        -0.597052        -0.204888
 C         1.584135        -1.359654        -1.470997
 C         2.611697        -0.180480        -1.245078
 O         3.952619        -0.417206        -0.898093
 C         4.153315        -0.431780         0.512053
 C         4.367887        -1.672518         1.232424
 C         3.148295        -0.787040         1.497328
 O         2.000389        -1.261452         0.945610
 H         0.277200         0.373729         1.253071
 H         0.202012         1.295313        -0.322124
 H        -0.543049        -0.273794        -0.261032
 H         1.869027        -2.378787        -1.378838
 H         0.997630        -1.020232        -2.343072
 H         2.476281         0.639090        -1.999100
 H         4.725587         0.489728         0.744033
 H         4.041294        -2.683993         0.820084
 H         5.336397        -1.708598         1.797625
 H         3.080276        -0.276996         2.445157
