19
Iteration:  3168
 C         0.220496         0.256622         0.216579
 C         1.453134        -0.530894        -0.191923
 C         1.539451        -1.274807        -1.495431
 C         2.592703        -0.202191        -1.210933
 O         3.973133        -0.474301        -0.872291
 C         4.260411        -0.392998         0.471140
 C         4.382947        -1.650353         1.290498
 C         3.167355        -0.802315         1.446853
 O         2.017901        -1.342089         0.865557
 H         0.481773         0.779742         1.199093
 H        -0.073290         0.963813        -0.472166
 H        -0.631028        -0.475570         0.305612
 H         1.768154        -2.338450        -1.444275
 H         0.809076        -1.061103        -2.272071
 H         2.605737         0.684587        -1.807431
 H         4.962569         0.487165         0.799063
 H         4.138488        -2.565967         0.693416
 H         5.065195        -1.532527         2.146882
 H         3.063054        -0.140085         2.355422
