19
Iteration:  1118
 C         0.509254         0.351902         0.326202
 C         1.434956        -0.601754        -0.232455
 C         1.507198        -1.225109        -1.737564
 C         2.551895        -0.230775        -1.202282
 O         3.818485        -0.575108        -0.865698
 C         4.152513        -0.337759         0.527085
 C         4.438278        -1.422894         1.483884
 C         3.063823        -0.903328         1.507395
 O         2.075123        -1.540033         0.740302
 H         1.070899         1.253145         0.825786
 H         0.033193         0.939825        -0.441050
 H        -0.288739        -0.019239         0.990444
 H         1.833822        -2.243267        -1.856912
 H         0.907601        -0.835258        -2.549569
 H         2.556475         0.835042        -1.692612
 H         4.800399         0.600485         0.611673
 H         4.637478        -2.408104         1.097199
 H         5.040224        -1.007808         2.275398
 H         2.651300        -0.278561         2.393170
