19
Iteration:   529
 C         0.373347         0.267441         0.221114
 C         1.509162        -0.567249        -0.204972
 C         1.530657        -1.183862        -1.579787
 C         2.528767        -0.180130        -1.182694
 O         3.883966        -0.552761        -0.907523
 C         4.216379        -0.385018         0.480054
 C         4.371821        -1.550200         1.439868
 C         3.104936        -0.781221         1.447274
 O         2.050623        -1.492306         0.806976
 H         0.698064         1.184022         0.798549
 H        -0.037948         0.716701        -0.593639
 H        -0.411825        -0.279684         0.758984
 H         1.994580        -2.154732        -1.637418
 H         0.792020        -1.085538        -2.370922
 H         2.516830         0.860927        -1.462053
 H         4.773206         0.655252         0.667571
 H         4.505321        -2.559539         1.080242
 H         5.021181        -1.269062         2.263165
 H         3.012987        -0.219040         2.367215
