19
Iteration:  3177
 C         0.215372         0.294016         0.172778
 C         1.461507        -0.578092        -0.157954
 C         1.507553        -1.315901        -1.478745
 C         2.624302        -0.182560        -1.226886
 O         3.954712        -0.490217        -0.857884
 C         4.327361        -0.367497         0.540890
 C         4.382390        -1.614074         1.232568
 C         3.169496        -0.793049         1.437389
 O         2.012292        -1.366051         0.839717
 H         0.459814         0.932841         1.076057
 H        -0.163691         0.861795        -0.610550
 H        -0.604762        -0.245024         0.656291
 H         1.706627        -2.379901        -1.623943
 H         0.766602        -0.914502        -2.308374
 H         2.417303         0.796411        -1.654767
 H         4.818236         0.567902         0.770336
 H         4.245338        -2.620750         0.921892
 H         5.086478        -1.737288         2.066671
 H         2.987406        -0.300873         2.471768
