19
Iteration:  2642
 C         0.277337         0.237296         0.178335
 C         1.511107        -0.619543        -0.175003
 C         1.629243        -1.310679        -1.451053
 C         2.492618        -0.200755        -1.216528
 O         3.957121        -0.438131        -0.999544
 C         4.310930        -0.410337         0.490006
 C         4.312765        -1.705024         1.335501
 C         3.144966        -0.686998         1.458106
 O         1.999038        -1.289162         0.943169
 H        -0.737785        -0.275172        -0.048714
 H         0.288833         0.501367         1.267061
 H         0.153114         1.101069        -0.513933
 H         2.140663        -2.329563        -1.406762
 H         0.661721        -1.249962        -2.120206
 H         2.398653         0.712060        -1.899597
 H         4.904125         0.395252         0.851743
 H         4.003418        -2.643762         0.793567
 H         5.273280        -1.689834         1.982753
 H         2.912910         0.046819         2.282413
