19
Iteration:  4112
 C         0.452440         0.453826         0.191009
 C         1.496104        -0.625750        -0.208779
 C         1.628381        -1.258478        -1.657969
 C         2.488425        -0.131309        -1.175558
 O         3.891877        -0.493272        -0.862059
 C         4.129492        -0.389053         0.516822
 C         4.456695        -1.565514         1.282201
 C         3.137660        -0.975780         1.483024
 O         1.891610        -1.496044         0.890715
 H        -0.030334         0.916004        -0.666970
 H        -0.276354         0.152846         0.892950
 H         0.960835         1.279062         0.718084
 H         2.161157        -2.247110        -1.563702
 H         0.794973        -1.077255        -2.319203
 H         2.500049         0.927827        -1.332246
 H         4.559428         0.643836         0.790784
 H         4.712477        -2.539692         0.959721
 H         5.133455        -1.402273         2.151393
 H         2.910605        -0.356444         2.455312
