19
Iteration:  3299
 C         0.371506         0.251113         0.332280
 C         1.465930        -0.578218        -0.153255
 C         1.655487        -1.172165        -1.647044
 C         2.577042        -0.160871        -1.164901
 O         3.866216        -0.596395        -0.898148
 C         4.226063        -0.443473         0.430436
 C         4.376358        -1.525199         1.413182
 C         3.055806        -0.777896         1.417758
 O         1.999486        -1.443169         0.803418
 H         0.427445         1.308968        -0.059859
 H        -0.618606        -0.044362         0.194670
 H         0.525543         0.441302         1.408125
 H         1.947847        -2.181489        -1.760577
 H         0.994735        -0.817576        -2.369268
 H         2.420050         0.824480        -1.535358
 H         4.856697         0.429824         0.458880
 H         4.365492        -2.617905         1.128741
 H         5.201407        -1.301722         2.124059
 H         2.727594         0.035848         2.099363
