19
Iteration:   868
 C         0.336321         0.192681         0.278669
 C         1.555341        -0.539416        -0.178309
 C         1.498207        -1.117986        -1.613856
 C         2.618753        -0.159166        -1.129531
 O         3.903803        -0.695448        -0.852248
 C         4.185328        -0.323352         0.473046
 C         4.387427        -1.442473         1.371060
 C         3.126424        -0.784978         1.408047
 O         2.046534        -1.512962         0.799132
 H         0.144367         0.785431         1.329424
 H         0.282182         1.019504        -0.428837
 H        -0.544683        -0.423182         0.162417
 H         1.699107        -2.173669        -1.728141
 H         0.772375        -0.820057        -2.340975
 H         2.631718         0.753695        -1.693673
 H         4.702393         0.716463         0.503464
 H         4.421746        -2.461861         1.056696
 H         4.948807        -1.269300         2.259965
 H         2.689733        -0.134242         2.138260
