19
Iteration:   929
 C         0.354141         0.285494         0.120028
 C         1.452302        -0.698881        -0.215376
 C         1.653959        -1.324049        -1.515357
 C         2.575242        -0.087877        -1.118600
 O         3.909352        -0.410954        -0.924554
 C         4.174125        -0.299375         0.509226
 C         4.427728        -1.681537         1.236754
 C         3.138356        -0.844603         1.516615
 O         1.932259        -1.363424         0.946209
 H         0.877087         1.127420         0.350403
 H        -0.289838         0.481387        -0.766678
 H        -0.354032        -0.004230         0.977317
 H         2.197258        -2.316723        -1.486527
 H         0.765319        -1.235590        -2.227833
 H         2.511279         0.861122        -1.721777
 H         4.682891         0.535014         0.783158
 H         4.065028        -2.553254         0.614665
 H         5.233023        -1.877344         2.034413
 H         2.974663        -0.240875         2.418256
