19
Iteration:  3901
 C         0.274705         0.308755         0.134329
 C         1.419721        -0.624796        -0.171974
 C         1.574052        -1.267196        -1.630794
 C         2.512920        -0.096688        -1.124977
 O         3.969317        -0.415695        -0.918437
 C         4.282894        -0.426978         0.507128
 C         4.437148        -1.719546         1.353484
 C         3.177624        -0.849244         1.476965
 O         1.945760        -1.356120         0.918417
 H        -0.017899         0.678760        -0.850824
 H        -0.403433        -0.196439         0.686746
 H         0.704537         1.169652         0.671579
 H         1.874516        -2.344504        -1.743693
 H         0.723945        -0.864047        -2.310892
 H         2.361247         0.923812        -1.573727
 H         4.888163         0.410869         0.780722
 H         4.302168        -2.712859         0.916730
 H         5.156009        -1.764183         2.233012
 H         3.060626        -0.268533         2.380269
