19
Iteration:  2726charge 0 multiplicity 1
 C         0.319832         0.364208         0.204870
 C         1.436425        -0.697456        -0.221274
 C         1.454254        -1.277631        -1.595501
 C         2.596768        -0.232439        -1.140286
 O         3.864843        -0.650094        -0.897882
 C         4.187706        -0.289342         0.468261
 C         4.567428        -1.486311         1.369260
 C         3.192481        -0.769417         1.513977
 O         1.972283        -1.424266         0.857165
 H        -0.672706        -0.029750         0.123640
 H         0.726315         0.895568         1.113502
 H         0.527789         1.193629        -0.542576
 H         1.957019        -2.278296        -1.842810
 H         0.650119        -0.900688        -2.426863
 H         2.460172         0.816715        -1.541157
 H         4.629400         0.764438         0.599912
 H         4.526026        -2.580018         1.018736
 H         5.281746        -1.372355         2.317219
 H         2.897735        -0.097851         2.359195
