19
Iteration:  3340charge 0 multiplicity 1
 C         0.378393         0.280869         0.135804
 C         1.534516        -0.592840        -0.208067
 C         1.539172        -1.131209        -1.566694
 C         2.564485        -0.097733        -1.146854
 O         3.777249        -0.633556        -0.809034
 C         4.197915        -0.365231         0.520110
 C         4.502972        -1.576829         1.295029
 C         3.156129        -0.912247         1.490143
 O         1.996739        -1.371735         0.845089
 H         0.037745         0.568217        -0.875128
 H        -0.446522        -0.471378         0.607169
 H         0.463153         1.296921         0.608830
 H         1.815313        -2.189693        -1.786631
 H         0.804024        -0.743785        -2.236425
 H         2.638165         0.858622        -1.642236
 H         4.571276         0.481829         0.890594
 H         4.560310        -2.530212         0.741889
 H         5.188068        -1.430199         2.104095
 H         2.940000        -0.443887         2.499302
