19
Iteration:   408charge 0 multiplicity 1
 C         0.303298         0.247767         0.160918
 C         1.537985        -0.566294        -0.233454
 C         1.621088        -1.414400        -1.566434
 C         2.534043        -0.126296        -1.179660
 O         3.880303        -0.389449        -0.863058
 C         4.233200        -0.395922         0.478361
 C         4.410343        -1.716045         1.273273
 C         3.216121        -0.778767         1.521742
 O         1.899056        -1.270389         0.930264
 H         0.660726         1.174075         0.740161
 H        -0.130063         0.647478        -0.695931
 H        -0.428298        -0.361432         0.786063
 H         1.880453        -2.470881        -1.498476
 H         0.891950        -1.344439        -2.382849
 H         2.444966         0.799535        -1.770213
 H         4.937662         0.536050         0.734399
 H         4.175037        -2.689159         0.820705
 H         5.236508        -1.707051         1.999461
 H         3.025934        -0.444159         2.454965
