19
Iteration:  4238
 C         0.267176         0.256531         0.120938
 C         1.482090        -0.545804        -0.185193
 C         1.606043        -1.102707        -1.617421
 C         2.526627        -0.072280        -1.129171
 O         3.805460        -0.684508        -0.830638
 C         4.303135        -0.403084         0.507848
 C         4.474043        -1.617863         1.338448
 C         3.168889        -0.848305         1.512156
 O         1.987346        -1.376332         0.822453
 H        -0.171267         0.916250        -0.726847
 H        -0.610047        -0.505980         0.416264
 H         0.609457         0.944523         0.933496
 H         2.098467        -2.094681        -1.550598
 H         0.854302        -0.719940        -2.288557
 H         2.529618         0.944850        -1.474620
 H         4.805762         0.508261         0.459069
 H         4.478251        -2.590899         0.825609
 H         5.161211        -1.489047         2.269760
 H         3.060213        -0.370472         2.414913
