19
Iteration:  4856
 C         0.557364         0.447114         0.257567
 C         1.499977        -0.579276        -0.262633
 C         1.516236        -1.273979        -1.599472
 C         2.584379        -0.211410        -1.226256
 O         3.904975        -0.515418        -0.842785
 C         4.076856        -0.365343         0.568327
 C         4.484593        -1.538995         1.371229
 C         3.030966        -0.985571         1.452326
 O         1.911043        -1.449357         0.799350
 H         0.173329         1.047922        -0.519377
 H        -0.095393        -0.229931         0.764111
 H         1.128556         1.303939         0.815876
 H         1.767067        -2.357544        -1.367177
 H         0.831399        -1.165578        -2.368244
 H         2.514872         0.763366        -1.752987
 H         4.410381         0.829380         0.787878
 H         4.586504        -2.503912         0.903695
 H         5.261763        -1.371481         2.105662
 H         2.794083        -0.225374         2.307917
