19
Iteration:  1484
 C         0.294489         0.368062         0.141574
 C         1.447914        -0.582113        -0.232584
 C         1.580202        -1.337900        -1.542671
 C         2.600958        -0.225881        -1.140949
 O         3.875001        -0.385389        -0.843900
 C         4.172096        -0.350691         0.578815
 C         4.562803        -1.683736         1.272052
 C         3.151141        -0.912286         1.486246
 O         1.940685        -1.327268         0.841043
 H         0.654924         1.050189         0.925952
 H        -0.124674         0.972858        -0.759119
 H        -0.579017        -0.128253         0.415113
 H         1.751262        -2.436989        -1.470262
 H         0.896902        -1.170188        -2.413083
 H         2.313055         0.653285        -1.681423
 H         4.787263         0.632800         0.904327
 H         4.464126        -2.672779         0.736290
 H         5.434607        -1.791855         1.943147
 H         3.073564        -0.433452         2.415661
