19
Iteration:  4687charge 0 multiplicity 1
 C         0.338434         0.426533         0.204702
 C         1.435152        -0.598542        -0.217556
 C         1.660674        -1.396291        -1.490027
 C         2.513673        -0.181894        -1.134766
 O         3.986608        -0.343188        -0.887971
 C         4.214705        -0.370234         0.459935
 C         4.374103        -1.738330         1.313564
 C         3.155663        -0.833864         1.442408
 O         1.921573        -1.409012         0.851551
 H        -0.030219         1.187766        -0.644459
 H        -0.640382        -0.021909         0.619971
 H         0.881199         1.131393         0.832326
 H         1.908919        -2.457983        -1.185499
 H         0.928257        -1.288483        -2.343146
 H         2.437044         0.739436        -1.728112
 H         4.813657         0.404705         0.784666
 H         4.138030        -2.574403         0.720368
 H         5.150925        -1.998181         2.025806
 H         3.012929        -0.199449         2.279447
