19
Iteration:   487
 C         0.250437         0.237586         0.112421
 C         1.493392        -0.579543        -0.163591
 C         1.613468        -1.276959        -1.611322
 C         2.521629        -0.160922        -1.180847
 O         3.877987        -0.547962        -0.803903
 C         4.258038        -0.366016         0.489519
 C         4.432695        -1.609052         1.195999
 C         3.201909        -0.883093         1.506655
 O         1.967060        -1.234204         0.973333
 H         0.323532         0.669383         1.140846
 H         0.076631         1.077128        -0.633560
 H        -0.525532        -0.488284         0.065517
 H         2.045974        -2.243618        -1.370868
 H         0.945456        -1.157468        -2.471623
 H         2.432153         0.751146        -1.735356
 H         4.866764         0.596232         0.647342
 H         4.480287        -2.545089         0.680285
 H         5.029951        -1.642829         2.084798
 H         2.983980        -0.268931         2.420310
