19
Iteration:   428
 C         0.247570         0.272759         0.001295
 C         1.479483        -0.641687        -0.133372
 C         1.649671        -1.300650        -1.410061
 C         2.527767        -0.173028        -1.169795
 O         3.922289        -0.413481        -0.879639
 C         4.248571        -0.369603         0.488834
 C         4.358282        -1.733941         1.197191
 C         3.195379        -0.769769         1.509919
 O         1.985619        -1.305020         0.962305
 H         0.401408         0.874580         0.917440
 H        -0.103983         0.791992        -0.800999
 H        -0.732518        -0.253981         0.317200
 H         2.220515        -2.299040        -1.454796
 H         0.876069        -1.251792        -2.202157
 H         2.387845         0.831504        -1.663478
 H         4.957067         0.552981         0.662345
 H         4.086169        -2.511583         0.423416
 H         5.124808        -1.904267         1.975100
 H         3.216712        -0.164822         2.420077
