19
Iteration:   415
 C         0.291597         0.252127         0.134593
 C         1.475035        -0.576745        -0.248360
 C         1.582238        -1.385666        -1.539924
 C         2.518659        -0.123250        -1.175959
 O         3.913835        -0.402527        -0.858855
 C         4.248889        -0.401985         0.531140
 C         4.386429        -1.679739         1.230897
 C         3.215063        -0.807337         1.465433
 O         1.978234        -1.273048         0.984975
 H         0.563173         1.106976         0.681492
 H         0.027502         0.752393        -0.872821
 H        -0.432768        -0.477734         0.551860
 H         2.166216        -2.352715        -1.369871
 H         0.779280        -1.475491        -2.305405
 H         2.385183         0.848736        -1.722960
 H         4.841740         0.389770         0.917281
 H         4.070579        -2.615447         0.697451
 H         5.193419        -1.956423         1.936214
 H         2.957876        -0.156308         2.418215
