19
Iteration:  1692charge 0 multiplicity 1
 C         0.449511         0.398711         0.356368
 C         1.469229        -0.666835        -0.277607
 C         1.579431        -1.159184        -1.767895
 C         2.562153        -0.249923        -1.214708
 O         3.866611        -0.670465        -0.783254
 C         4.056541        -0.248265         0.613837
 C         4.465104        -1.510980         1.390090
 C         3.096921        -0.864001         1.470388
 O         2.045397        -1.474765         0.750686
 H         0.725090         1.014770         1.301462
 H        -0.103797         1.035114        -0.481513
 H        -0.369594        -0.226240         0.671185
 H         1.695331        -2.198161        -1.939732
 H         0.856936        -0.705135        -2.437203
 H         2.660172         0.749633        -1.602627
 H         4.555753         0.826227         0.616990
 H         4.704652        -2.355866         0.744078
 H         5.122725        -1.299994         2.195413
 H         2.853409        -0.351551         2.324966
