19
Iteration:  1979
 C         0.442777         0.256421         0.384481
 C         1.523112        -0.642811        -0.252453
 C         1.549231        -1.164821        -1.620811
 C         2.659549        -0.148846        -1.248646
 O         3.861991        -0.672430        -0.852063
 C         4.101361        -0.306500         0.481506
 C         4.396893        -1.482559         1.446038
 C         3.049165        -0.813860         1.450273
 O         2.038855        -1.427838         0.741176
 H         1.004348         0.645595         1.279090
 H         0.267628         1.151829        -0.215507
 H        -0.573999        -0.183658         0.506601
 H         1.997108        -2.146118        -1.914631
 H         0.687831        -1.027986        -2.264027
 H         2.543424         0.777674        -1.830174
 H         4.547928         0.665720         0.534176
 H         4.321554        -2.391828         0.841885
 H         4.874797        -1.385463         2.458014
 H         2.692465        -0.300905         2.407651
