19
Iteration:  4889charge 0 multiplicity 1
 C         0.358262         0.415850         0.117827
 C         1.449894        -0.610546        -0.145588
 C         1.594829        -1.153300        -1.629432
 C         2.583238        -0.151888        -1.132373
 O         3.819700        -0.683185        -0.788997
 C         4.214962        -0.357462         0.505131
 C         4.454615        -1.597350         1.347287
 C         3.112206        -0.843062         1.452484
 O         2.041012        -1.453666         0.844400
 H        -0.060007         0.737694        -0.771128
 H        -0.549884         0.039001         0.529764
 H         0.403030         1.249844         0.808711
 H         1.921416        -2.216373        -1.834394
 H         0.892717        -0.767690        -2.268952
 H         2.641791         0.868967        -1.531414
 H         4.670759         0.733841         0.643013
 H         4.290424        -2.488897         0.755470
 H         5.243922        -1.719458         2.036878
 H         2.998832        -0.113569         2.285680
