19
Iteration:  1606
 C         0.274747         0.246884         0.212908
 C         1.464733        -0.560736        -0.209309
 C         1.613637        -1.212188        -1.628677
 C         2.621028        -0.098095        -1.173508
 O         3.830080        -0.611135        -0.830577
 C         4.206407        -0.353971         0.522290
 C         4.431907        -1.628187         1.309339
 C         3.108442        -0.850453         1.525743
 O         2.050089        -1.337496         0.844284
 H         0.541049         0.996961         0.901492
 H        -0.158042         0.808031        -0.703879
 H        -0.524804        -0.416503         0.515950
 H         2.123018        -2.138012        -1.743331
 H         0.942926        -0.934208        -2.410300
 H         2.574334         0.838017        -1.768216
 H         4.775595         0.592645         0.850053
 H         4.315694        -2.492659         0.665786
 H         5.168514        -1.773935         2.070204
 H         2.947167        -0.250127         2.419973
