19
Iteration:  1272charge 0 multiplicity 1
 C         0.287462         0.173757         0.164123
 C         1.470009        -0.588477        -0.255688
 C         1.692276        -1.283732        -1.549909
 C         2.530325        -0.164780        -1.270203
 O         3.901410        -0.346386        -0.873115
 C         4.189101        -0.440101         0.581256
 C         4.479080        -1.772548         1.232940
 C         3.205512        -0.874046         1.491911
 O         1.880781        -1.151815         0.978777
 H         0.684775         0.958799         0.930852
 H        -0.184704         0.534665        -0.683306
 H        -0.604045        -0.376763         0.658105
 H         2.219110        -2.233409        -1.363298
 H         0.943621        -1.436897        -2.354974
 H         2.376597         0.932825        -1.655633
 H         4.850255         0.410620         0.793715
 H         4.145420        -2.683080         0.720051
 H         5.366050        -1.852703         1.861311
 H         2.880373        -0.296893         2.389775
