19
Iteration:  1644charge 0 multiplicity 1
 C         0.465179         0.350387         0.312508
 C         1.523840        -0.601761        -0.192435
 C         1.579014        -1.178708        -1.593987
 C         2.572116        -0.195701        -1.202019
 O         3.916430        -0.504056        -0.928195
 C         4.112419        -0.357733         0.500816
 C         4.371844        -1.467350         1.458013
 C         3.005630        -0.912835         1.419940
 O         2.023602        -1.596850         0.794214
 H         0.939627         0.960918         1.168031
 H         0.406630         1.042507        -0.476280
 H        -0.577561         0.101698         0.627163
 H         1.800694        -2.267029        -1.870510
 H         0.918340        -0.718142        -2.409574
 H         2.575954         0.767670        -1.722999
 H         4.460302         0.611383         0.552062
 H         4.594349        -2.442894         0.952971
 H         5.097586        -1.240743         2.311234
 H         2.621986        -0.276797         2.293422
