19
Iteration:  2759
 C         0.469951         0.236195         0.343569
 C         1.518112        -0.538475        -0.211137
 C         1.527400        -1.263203        -1.509944
 C         2.614878        -0.191494        -1.224309
 O         3.847183        -0.673224        -0.932211
 C         4.169093        -0.327878         0.462892
 C         4.366806        -1.504160         1.451860
 C         3.090688        -0.708266         1.426279
 O         2.044648        -1.437163         0.745963
 H        -0.276398        -0.310164         0.904137
 H         0.650311         1.180835         0.943470
 H        -0.219808         0.598022        -0.428829
 H         1.854040        -2.318585        -1.628618
 H         0.686781        -0.923324        -2.305334
 H         2.622170         0.801599        -1.789674
 H         4.705941         0.651501         0.388936
 H         4.153218        -2.622740         1.226762
 H         5.134642        -1.134583         2.251546
 H         2.780149        -0.024936         2.259340
