19
Iteration:  2767
 C         0.372438         0.294362         0.360651
 C         1.505503        -0.570582        -0.252118
 C         1.556943        -1.245215        -1.511472
 C         2.574395        -0.155490        -1.206156
 O         3.938679        -0.729334        -0.954232
 C         4.114189        -0.339345         0.434681
 C         4.352723        -1.488081         1.483082
 C         3.071395        -0.689823         1.397802
 O         2.071871        -1.422760         0.735785
 H         0.043110        -0.372815         1.197028
 H         0.782805         1.151905         0.992397
 H        -0.377115         0.504765        -0.445199
 H         1.904485        -2.276399        -1.457536
 H         0.742626        -1.068688        -2.093655
 H         2.626624         0.808406        -1.670539
 H         4.757456         0.636298         0.661467
 H         4.217140        -2.511997         1.150207
 H         5.258611        -1.379869         2.097943
 H         2.745367        -0.160573         2.290864
