19
Iteration:  3278
 C         0.384813         0.280045         0.351280
 C         1.464664        -0.524262        -0.228512
 C         1.458465        -1.237718        -1.573751
 C         2.592101        -0.098398        -1.299810
 O         3.890344        -0.600506        -0.920577
 C         4.226657        -0.362869         0.521378
 C         4.364904        -1.576359         1.498645
 C         3.087245        -0.824496         1.433325
 O         2.121853        -1.436231         0.725974
 H         0.391262         1.315844         0.020300
 H        -0.460975         0.017332        -0.070737
 H         0.366658         0.057141         1.427875
 H         1.931919        -2.178549        -1.476816
 H         0.674665        -1.163224        -2.244324
 H         2.599018         0.896840        -1.699639
 H         4.661925         0.696881         0.600815
 H         4.278366        -2.660036         1.141444
 H         5.039468        -1.483380         2.384116
 H         2.820118        -0.212924         2.308124
