19
Iteration:   958
 C         0.238654         0.321610         0.019200
 C         1.474731        -0.568715        -0.181880
 C         1.674527        -1.336450        -1.432801
 C         2.594715        -0.178187        -1.163068
 O         3.849513        -0.340269        -0.872333
 C         4.228353        -0.295904         0.540746
 C         4.476546        -1.755426         1.188662
 C         3.206336        -0.898096         1.490468
 O         1.904258        -1.368048         0.979043
 H         0.398376         1.440589         0.305986
 H        -0.282667         0.461102        -1.012597
 H        -0.364128        -0.265605         0.707956
 H         1.858166        -2.375613        -1.219588
 H         0.893157        -1.191858        -2.167142
 H         2.497132         0.724347        -1.755514
 H         4.974082         0.593306         0.743787
 H         4.354704        -2.550942         0.461121
 H         5.171961        -2.043010         1.974061
 H         3.149993        -0.345007         2.444723
