19
Iteration:  1579
 C         0.175660         0.168843         0.058648
 C         1.514760        -0.471940        -0.156259
 C         1.591148        -1.158472        -1.511043
 C         2.639120        -0.052460        -1.102387
 O         3.925469        -0.545374        -0.905936
 C         4.283303        -0.442417         0.475567
 C         4.435529        -1.683935         1.289309
 C         3.133487        -0.857371         1.439189
 O         1.927805        -1.319638         0.956250
 H         0.170308         1.137233         0.722441
 H        -0.259625         0.431377        -0.862931
 H        -0.522407        -0.627132         0.441133
 H         2.137837        -2.149387        -1.494182
 H         0.773593        -1.143245        -2.292034
 H         2.586334         0.969136        -1.467682
 H         4.909796         0.391471         0.794077
 H         4.471126        -2.656428         0.743745
 H         5.253077        -1.746575         2.055728
 H         2.991417        -0.214925         2.359984
