19
Iteration:  4680
 C         0.327963         0.495584         0.205007
 C         1.429974        -0.633595        -0.226235
 C         1.656786        -1.391203        -1.473355
 C         2.541125        -0.199448        -1.187676
 O         3.924730        -0.357210        -0.832227
 C         4.194824        -0.401776         0.522650
 C         4.382656        -1.689765         1.249438
 C         3.139324        -0.860713         1.428659
 O         1.967145        -1.393939         0.851191
 H         0.126227         0.924647        -0.696567
 H        -0.472289        -0.010001         0.618372
 H         0.943365         1.043493         0.946221
 H         1.881006        -2.462128        -1.198941
 H         1.048421        -1.240395        -2.293570
 H         2.491584         0.645370        -1.928280
 H         4.726106         0.609476         0.867430
 H         4.089664        -2.509586         0.545782
 H         5.145183        -1.973799         1.985020
 H         3.115280        -0.260323         2.349021
