19
Iteration:   240
 C         0.284221         0.317022         0.139399
 C         1.470693        -0.578102        -0.143778
 C         1.626431        -1.268624        -1.587063
 C         2.487261        -0.182228        -1.128673
 O         3.960835        -0.547016        -0.923203
 C         4.202579        -0.347920         0.425781
 C         4.457236        -1.553953         1.268239
 C         3.183830        -0.846790         1.497905
 O         1.901434        -1.381296         0.987202
 H         0.370014         0.728880         1.062736
 H         0.229691         1.151993        -0.680075
 H        -0.601978        -0.254970         0.141745
 H         1.975611        -2.268899        -1.248878
 H         0.952783        -1.348173        -2.445670
 H         2.642374         0.714655        -1.703685
 H         4.805638         0.476839         0.722492
 H         4.279876        -2.526554         0.856618
 H         5.289204        -1.530951         1.913619
 H         3.149404        -0.189264         2.416944
