19
Iteration:   835
 C         0.355575         0.309657         0.310605
 C         1.527886        -0.667790        -0.281636
 C         1.512921        -1.159439        -1.785123
 C         2.515547        -0.076654        -1.189189
 O         3.797874        -0.713220        -0.815555
 C         4.176200        -0.315596         0.473684
 C         4.544780        -1.436145         1.480721
 C         3.138725        -0.815623         1.460276
 O         2.027670        -1.557848         0.860530
 H         0.486904         0.651881         1.444492
 H         0.472633         1.243178        -0.261360
 H        -0.613659        -0.091181         0.029244
 H         2.102486        -2.052559        -1.970480
 H         0.668743        -0.927710        -2.421715
 H         2.562886         0.876965        -1.682114
 H         4.677550         0.703277         0.628378
 H         4.568705        -2.446285         1.096197
 H         5.080977        -1.102706         2.345103
 H         2.960766        -0.023610         2.159553
