19
Iteration:  1297charge 0 multiplicity 1
 C         0.264381         0.331439         0.086251
 C         1.468324        -0.546101        -0.196077
 C         1.687838        -1.332325        -1.454450
 C         2.541301        -0.205396        -1.115080
 O         3.930450        -0.349273        -0.873791
 C         4.254444        -0.354864         0.547658
 C         4.367746        -1.696895         1.170938
 C         3.167344        -0.890251         1.439767
 O         1.937392        -1.373863         0.964180
 H         0.524564         1.165279         0.756892
 H        -0.302687         0.538213        -0.840391
 H        -0.389081        -0.245533         0.493175
 H         1.981122        -2.385437        -1.370795
 H         0.934579        -1.087668        -2.209068
 H         2.384180         0.550715        -1.821331
 H         4.843382         0.635647         0.776566
 H         4.471344        -2.452398         0.385526
 H         5.066027        -1.734939         2.003104
 H         3.024521        -0.501199         2.357506
