19
Iteration:  3230
 C         0.415052         0.354916         0.213377
 C         1.448532        -0.670253        -0.142692
 C         1.595965        -1.210258        -1.624546
 C         2.545956        -0.126676        -1.160719
 O         3.875389        -0.609851        -0.897302
 C         4.157183        -0.317986         0.515072
 C         4.505412        -1.489700         1.318763
 C         3.140099        -0.917398         1.450868
 O         1.890428        -1.463916         0.878181
 H         0.834736         1.379505         0.099023
 H        -0.537251         0.533194        -0.545513
 H         0.217429         0.113783         1.280176
 H         2.187988        -2.162853        -1.604765
 H         0.680251        -0.997903        -2.346921
 H         2.494033         0.921492        -1.560397
 H         4.663433         0.585584         0.646675
 H         4.724773        -2.253297         0.646143
 H         5.198839        -1.534517         2.158534
 H         3.016118        -0.314463         2.410787
