19
Iteration:  1258
 C         0.266717         0.185841         0.113370
 C         1.514758        -0.585789        -0.223052
 C         1.708573        -1.356139        -1.566689
 C         2.531342        -0.052206        -1.150843
 O         3.848476        -0.392980        -0.859442
 C         4.261779        -0.432852         0.474066
 C         4.350252        -1.762295         1.229167
 C         3.166410        -0.809493         1.507374
 O         1.951000        -1.200844         0.994272
 H         0.494500         0.915634         0.909616
 H        -0.243437         0.743530        -0.728019
 H        -0.387091        -0.763064         0.564086
 H         2.273044        -2.293070        -1.554739
 H         0.955911        -1.116453        -2.292376
 H         2.385114         0.795925        -1.857880
 H         4.913080         0.314262         0.766907
 H         4.248107        -2.633241         0.585684
 H         5.100206        -1.817096         2.029306
 H         3.306336        -0.303852         2.542513
