19
Iteration:  4892
 C         0.354243         0.403519         0.107749
 C         1.435920        -0.599496        -0.180110
 C         1.595133        -1.129946        -1.601419
 C         2.594813        -0.139847        -1.130105
 O         3.818633        -0.691623        -0.794042
 C         4.205605        -0.391862         0.484945
 C         4.454050        -1.600576         1.339863
 C         3.143159        -0.820897         1.475609
 O         2.049692        -1.443752         0.855714
 H        -0.123489         0.710915        -0.855317
 H        -0.570628        -0.141876         0.483904
 H         0.475164         1.200399         0.880029
 H         1.921878        -2.147109        -1.728408
 H         0.860975        -0.795300        -2.410545
 H         2.594544         0.882954        -1.411656
 H         4.635530         0.671044         0.655855
 H         4.230239        -2.489660         0.762782
 H         5.219221        -1.658784         2.091944
 H         2.910962        -0.154904         2.309603
