19
Iteration:  2128
 C         0.193885         0.176582         0.087427
 C         1.459836        -0.539779        -0.175220
 C         1.656886        -1.241960        -1.527582
 C         2.570324        -0.127335        -1.119644
 O         3.940084        -0.390955        -0.896038
 C         4.336832        -0.471725         0.544867
 C         4.292420        -1.737611         1.277477
 C         3.183385        -0.748303         1.459239
 O         2.009632        -1.291794         0.935500
 H         0.090183         0.554107         1.149361
 H         0.070894         1.008556        -0.705726
 H        -0.564873        -0.539748         0.001814
 H         2.143245        -2.213968        -1.560334
 H         0.900049        -1.151813        -2.300749
 H         2.340296         0.786927        -1.719518
 H         5.102784         0.299389         0.846816
 H         3.777283        -2.576071         0.716570
 H         5.202019        -2.203518         1.820857
 H         2.865297        -0.173078         2.285475
