19
Iteration:   905charge 0 multiplicity 1
 C         0.324162         0.267376         0.253877
 C         1.512573        -0.547563        -0.194763
 C         1.596411        -1.315340        -1.716582
 C         2.507224        -0.174989        -1.164835
 O         3.845095        -0.481061        -0.833689
 C         4.240399        -0.374596         0.484805
 C         4.421518        -1.618272         1.340818
 C         3.102449        -0.835408         1.474677
 O         2.022983        -1.340058         0.878207
 H         0.726990         1.091731         0.827680
 H        -0.192445         0.633976        -0.736342
 H        -0.434603        -0.330613         0.827277
 H         2.158957        -2.250558        -1.633057
 H         0.947592        -1.133934        -2.594940
 H         2.538662         0.719308        -1.802428
 H         4.881683         0.485537         0.779844
 H         4.409957        -2.668234         1.012652
 H         5.124798        -1.318748         2.141776
 H         2.928399        -0.329637         2.448875
