19
Iteration:  4809
 C         0.522656         0.373986         0.272802
 C         1.476985        -0.633098        -0.225294
 C         1.524151        -1.271756        -1.592955
 C         2.541675        -0.203834        -1.178641
 O         3.885253        -0.562141        -0.798879
 C         4.154957        -0.383544         0.528485
 C         4.398341        -1.545545         1.386627
 C         3.056067        -0.740553         1.409766
 O         2.014863        -1.482994         0.735467
 H         0.314930         1.248584        -0.436965
 H        -0.444044        -0.142084         0.644135
 H         0.927986         1.116593         0.995009
 H         1.817889        -2.301391        -1.701805
 H         0.815649        -0.897603        -2.428546
 H         2.545549         0.886104        -1.580149
 H         4.687263         0.598576         0.724307
 H         4.227842        -2.499897         0.800572
 H         5.163548        -1.761903         2.193299
 H         2.881142        -0.109356         2.311521
