19
Iteration:  1383
 C         0.332888         0.230846         0.350819
 C         1.482960        -0.581111        -0.147062
 C         1.576593        -1.112560        -1.580934
 C         2.658595        -0.150435        -1.237671
 O         3.877391        -0.706382        -0.884954
 C         4.175027        -0.299126         0.428272
 C         4.359314        -1.486645         1.419226
 C         3.090791        -0.746457         1.460754
 O         2.076141        -1.501586         0.740216
 H         0.305437         0.878824         1.319436
 H         0.113645         0.873641        -0.520919
 H        -0.508315        -0.438446         0.549381
 H         1.725221        -2.183620        -1.750737
 H         0.897435        -0.764518        -2.350564
 H         2.719249         0.808641        -1.733296
 H         4.762182         0.692985         0.558562
 H         4.192073        -2.510862         1.081738
 H         5.010386        -1.519359         2.299157
 H         2.856643        -0.199487         2.255900
