19
Iteration:  4483charge 0 multiplicity 1
 C         0.404756         0.479423         0.206269
 C         1.492733        -0.637431        -0.215601
 C         1.584447        -1.346518        -1.628898
 C         2.549154        -0.235628        -1.115791
 O         3.924031        -0.446250        -0.854258
 C         4.189407        -0.294648         0.533527
 C         4.511477        -1.625579         1.216423
 C         3.118660        -0.924042         1.439232
 O         1.829665        -1.463398         0.917872
 H         0.136507         0.971087        -0.722233
 H        -0.438968         0.068089         0.736377
 H         0.886843         1.340284         0.861460
 H         2.032800        -2.247997        -1.344853
 H         0.803001        -1.120840        -2.364755
 H         2.414628         0.832567        -1.472744
 H         4.558201         0.746506         0.866455
 H         4.566220        -2.456248         0.521838
 H         5.158952        -1.605495         2.055298
 H         3.048905        -0.395138         2.341836
