19
Iteration:  2660charge 0 multiplicity 1
 C         0.261264         0.266366         0.144102
 C         1.463206        -0.619439        -0.219205
 C         1.527748        -1.402489        -1.549111
 C         2.572890        -0.226600        -1.141091
 O         3.916205        -0.432089        -0.889525
 C         4.259196        -0.380196         0.470411
 C         4.398169        -1.659696         1.291353
 C         3.243517        -0.719842         1.456728
 O         1.974128        -1.290982         0.952421
 H        -0.696512        -0.037204        -0.131427
 H         0.217139         0.561936         1.200019
 H         0.195735         1.297663        -0.180596
 H         1.845520        -2.501234        -1.424184
 H         0.935294        -1.147220        -2.418849
 H         2.577630         0.752037        -1.637026
 H         4.965906         0.470232         0.455088
 H         4.192292        -2.619423         0.819569
 H         5.041842        -1.581477         2.208618
 H         3.208612        -0.147618         2.384061
