19
Iteration:  4055charge 0 multiplicity 1
 C         0.336663         0.177703         0.306755
 C         1.515315        -0.512934        -0.198792
 C         1.525350        -1.100186        -1.607059
 C         2.655266        -0.142152        -1.229250
 O         3.932293        -0.669056        -0.926720
 C         4.171403        -0.423086         0.479586
 C         4.397715        -1.584419         1.438786
 C         3.108964        -0.739295         1.513899
 O         1.990518        -1.394015         0.786883
 H        -0.110526         0.918890        -0.355745
 H        -0.405230        -0.486784         0.439628
 H         0.493756         0.666368         1.280153
 H         1.512995        -2.179677        -1.936832
 H         0.892548        -0.650258        -2.453120
 H         2.540850         0.814887        -1.710830
 H         4.771296         0.409415         0.665993
 H         4.266704        -2.664700         1.035420
 H         5.199068        -1.370176         2.215945
 H         2.988944         0.011374         2.324899
