19
Iteration:  2402
 C         0.216755         0.291074         0.196777
 C         1.398692        -0.579984        -0.268172
 C         1.667242        -1.350816        -1.516189
 C         2.593826        -0.107491        -1.124097
 O         3.924849        -0.389993        -0.862439
 C         4.269385        -0.429351         0.557026
 C         4.333978        -1.715857         1.280329
 C         3.136226        -0.829033         1.418439
 O         2.027874        -1.295978         0.857064
 H         0.626647         1.278855         0.565563
 H        -0.446225         0.312686        -0.629655
 H        -0.227159        -0.136549         1.037685
 H         2.085727        -2.326228        -1.413250
 H         1.094759        -1.396009        -2.502739
 H         2.410899         0.746897        -1.742538
 H         5.082377         0.147862         0.842440
 H         4.077192        -2.609880         0.810107
 H         5.090638        -1.574154         2.000662
 H         3.007669        -0.228217         2.307206
