19
Iteration:  3880charge 0 multiplicity 1
 C         0.147813         0.297173         0.156079
 C         1.456534        -0.535213        -0.168552
 C         1.646019        -1.159753        -1.552965
 C         2.634680        -0.081343        -1.172536
 O         3.865029        -0.605295        -0.868007
 C         4.234125        -0.430389         0.471053
 C         4.443940        -1.656185         1.305378
 C         3.183165        -0.862822         1.481369
 O         1.995912        -1.367885         0.876340
 H        -0.120655         1.029560        -0.672891
 H        -0.563374        -0.453994         0.318616
 H         0.229977         0.995337         1.022334
 H         2.232716        -2.096716        -1.460051
 H         0.796672        -1.049916        -2.319151
 H         2.538113         0.921188        -1.640479
 H         4.798375         0.408308         0.722701
 H         4.442358        -2.664477         0.849398
 H         5.244806        -1.543571         2.137179
 H         3.109309        -0.262048         2.389638
