19
Iteration:   992
 C         0.241144         0.229159         0.092438
 C         1.527978        -0.576475        -0.224789
 C         1.687967        -1.368964        -1.527941
 C         2.583759        -0.160545        -1.145748
 O         3.873931        -0.381331        -0.858122
 C         4.255746        -0.375068         0.543020
 C         4.412548        -1.755038         1.172834
 C         3.197707        -0.855229         1.458703
 O         1.888089        -1.154729         1.001495
 H         0.283915         0.743102         1.076716
 H        -0.209124         0.834500        -0.818409
 H        -0.651225        -0.412502         0.351316
 H         2.115266        -2.386782        -1.360542
 H         0.804729        -1.320833        -2.227149
 H         2.307480         0.769493        -1.652652
 H         5.051739         0.413015         0.536020
 H         4.512981        -2.706558         0.563413
 H         5.099013        -1.885543         2.046856
 H         3.050322        -0.535637         2.491184
