19
Iteration:   125charge 0 multiplicity 1
 C         0.291055         0.321653         0.153660
 C         1.422459        -0.612136        -0.224595
 C         1.577477        -1.249208        -1.635772
 C         2.554971        -0.226964        -1.244111
 O         3.840257        -0.501185        -0.858406
 C         4.110500        -0.397983         0.524137
 C         4.509096        -1.616541         1.362775
 C         3.216391        -0.769657         1.461549
 O         2.047015        -1.375770         0.949136
 H         0.699198         1.159862         0.859945
 H        -0.113436         0.748500        -0.646094
 H        -0.484357        -0.229233         0.797879
 H         1.929937        -2.306481        -1.562891
 H         0.951718        -1.020233        -2.510244
 H         2.419494         0.808275        -1.678061
 H         4.861579         0.443156         0.792966
 H         4.410005        -2.647234         0.867380
 H         5.269221        -1.571755         2.172992
 H         3.113490        -0.171192         2.401444
