19
Iteration:  2366charge 0 multiplicity 1
 C         0.315602         0.247201         0.096159
 C         1.551180        -0.563775        -0.237919
 C         1.593647        -1.377488        -1.487436
 C         2.580822        -0.187183        -1.224980
 O         3.948466        -0.270905        -0.889846
 C         4.195609        -0.382502         0.544485
 C         4.300300        -1.760055         1.178475
 C         3.127921        -0.862739         1.562198
 O         1.988733        -1.296345         0.978357
 H         0.435125         1.098309         0.670060
 H        -0.113914         0.801051        -0.797437
 H        -0.452911        -0.377840         0.606488
 H         1.932575        -2.401621        -1.248108
 H         1.044628        -1.075189        -2.309545
 H         2.323498         0.752742        -1.796994
 H         4.924842         0.299041         0.834745
 H         4.194858        -2.807326         0.814474
 H         5.140698        -1.827419         1.915925
 H         3.035960        -0.163856         2.443681
