19
Iteration:  1168
 C         0.446163         0.328447         0.298392
 C         1.488097        -0.643577        -0.162766
 C         1.621693        -1.215591        -1.609910
 C         2.597493        -0.216167        -1.199875
 O         3.912190        -0.595799        -0.825365
 C         4.135642        -0.250621         0.495465
 C         4.399064        -1.513773         1.268103
 C         3.068449        -0.786283         1.455694
 O         1.979206        -1.502000         0.793597
 H         0.507070         0.983531         1.142791
 H         0.097925         1.131323        -0.438097
 H        -0.440378        -0.342743         0.642874
 H         1.800182        -2.280695        -1.547429
 H         0.881953        -1.019806        -2.393476
 H         2.578430         0.730590        -1.583321
 H         4.597503         0.711956         0.694302
 H         4.305729        -2.462088         0.719656
 H         5.072720        -1.389104         2.114539
 H         2.700715        -0.361792         2.330787
