19
Iteration:   417
 C         0.292554         0.258719         0.103082
 C         1.454872        -0.587549        -0.240685
 C         1.579322        -1.374218        -1.525463
 C         2.520307        -0.130803        -1.180186
 O         3.920690        -0.404933        -0.859576
 C         4.248179        -0.405367         0.535586
 C         4.383121        -1.679896         1.222649
 C         3.195688        -0.811243         1.466267
 O         2.001857        -1.273441         0.993878
 H         0.542790         1.104665         0.762104
 H         0.025790         0.689829        -0.792028
 H        -0.486289        -0.475252         0.500548
 H         2.241005        -2.272652        -1.332114
 H         0.760416        -1.447674        -2.269713
 H         2.365578         0.852819        -1.712388
 H         4.900098         0.446027         0.964551
 H         4.038151        -2.580637         0.636878
 H         5.175317        -1.975881         1.932516
 H         3.028258        -0.140542         2.308685
