19
Iteration:   575charge 0 multiplicity 1
 C         0.510457         0.331808         0.360454
 C         1.544770        -0.635970        -0.243351
 C         1.539377        -1.178047        -1.643710
 C         2.587330        -0.200257        -1.166706
 O         3.880167        -0.699698        -0.857078
 C         4.076622        -0.202751         0.468623
 C         4.430755        -1.432291         1.423056
 C         3.051439        -0.845017         1.425977
 O         2.009467        -1.524632         0.732973
 H         0.717560         1.220071         0.957875
 H        -0.291047         0.812529        -0.352183
 H        -0.117123        -0.281295         0.902012
 H         1.624620        -2.297866        -1.769616
 H         0.794445        -0.944720        -2.441163
 H         2.668821         0.813561        -1.522514
 H         4.737104         0.708023         0.835299
 H         4.466572        -2.346269         0.779311
 H         4.998159        -1.346604         2.382099
 H         2.719569        -0.236924         2.432982
