19
Iteration:  3354
 C         0.223516         0.354537         0.110307
 C         1.472394        -0.461904        -0.224489
 C         1.576866        -1.197484        -1.574154
 C         2.573541        -0.091701        -1.199717
 O         3.872937        -0.593386        -0.790153
 C         4.146911        -0.348736         0.550739
 C         4.562209        -1.646744         1.266594
 C         3.174361        -0.954424         1.526360
 O         1.992620        -1.430641         0.852119
 H        -0.454324         0.467525        -0.781111
 H        -0.378191        -0.162696         0.890141
 H         0.569453         1.279883         0.660139
 H         1.967572        -2.111681        -1.391764
 H         0.870160        -1.117145        -2.393345
 H         2.558883         0.851186        -1.732768
 H         4.769919         0.543349         0.579128
 H         4.574209        -2.630160         0.771991
 H         5.318988        -1.478992         2.128031
 H         3.034708        -0.528481         2.530349
