19
Iteration:   644
 C         0.302312         0.280751         0.151224
 C         1.484914        -0.627873        -0.154471
 C         1.604701        -1.217847        -1.540429
 C         2.566625        -0.138722        -1.142968
 O         3.932498        -0.532310        -0.880562
 C         4.166644        -0.320791         0.465703
 C         4.417867        -1.630426         1.283447
 C         3.143923        -0.781281         1.485075
 O         2.018387        -1.445682         0.894331
 H         0.327746         0.717799         1.087880
 H         0.282441         1.111558        -0.693312
 H        -0.650487        -0.219457         0.002515
 H         1.979721        -2.201193        -1.619174
 H         0.747710        -1.153604        -2.168800
 H         2.331224         0.854674        -1.559561
 H         4.843579         0.434113         0.549178
 H         4.187512        -2.506182         0.725579
 H         4.968593        -1.455934         2.173206
 H         2.969054        -0.130462         2.432748
