19
Iteration:  4362
 C         0.270699         0.303737         0.200725
 C         1.513852        -0.560063        -0.194868
 C         1.452722        -1.120705        -1.665334
 C         2.573341        -0.197517        -1.150035
 O         3.888140        -0.700633        -0.846027
 C         4.276633        -0.279509         0.576953
 C         4.461671        -1.577690         1.308501
 C         3.171598        -0.838648         1.520275
 O         1.984568        -1.425232         0.820552
 H        -0.147938         1.042929        -0.561323
 H        -0.494952        -0.462098         0.334873
 H         0.463881         0.776618         1.293013
 H         1.914976        -2.145339        -1.802544
 H         0.936264        -0.536724        -2.401720
 H         2.817232         0.729935        -1.730268
 H         4.723553         0.724625         0.545220
 H         4.457088        -2.437535         0.655290
 H         5.102260        -1.507018         2.196899
 H         3.056114        -0.362454         2.444219
