19
Iteration:   923charge 0 multiplicity 1
 C         0.365801         0.297365         0.127802
 C         1.451457        -0.682094        -0.229992
 C         1.682632        -1.320222        -1.556330
 C         2.565703        -0.111572        -1.189717
 O         3.861251        -0.415280        -0.889851
 C         4.176285        -0.345620         0.513827
 C         4.425862        -1.674954         1.280301
 C         3.189692        -0.816202         1.509070
 O         1.916630        -1.383146         0.946549
 H         0.822640         1.288123         0.655645
 H        -0.362650         0.457457        -0.665500
 H        -0.218408        -0.095719         0.919460
 H         2.126227        -2.279424        -1.551883
 H         0.885739        -1.170498        -2.220853
 H         2.283730         0.864463        -1.575616
 H         4.833460         0.607010         0.745862
 H         4.213223        -2.475803         0.614683
 H         5.125464        -1.803836         2.041918
 H         2.992762        -0.203677         2.388787
