19
Iteration:  3515
 C         0.329744         0.349119         0.249446
 C         1.487300        -0.592642        -0.136586
 C         1.616059        -1.143286        -1.686840
 C         2.540746        -0.110984        -1.076721
 O         3.861108        -0.661031        -0.941076
 C         4.236115        -0.366391         0.454051
 C         4.381957        -1.529821         1.456438
 C         3.131946        -0.802696         1.381449
 O         2.035262        -1.527968         0.838825
 H         0.036321         0.989873        -0.480102
 H        -0.691650        -0.155623         0.393575
 H         0.568903         0.873216         1.157423
 H         2.167082        -2.070800        -1.815289
 H         0.876312        -0.764313        -2.304241
 H         2.472209         0.793524        -1.593388
 H         4.831399         0.552943         0.650979
 H         4.360455        -2.598539         1.018529
 H         5.005917        -1.597760         2.384552
 H         2.785975        -0.075591         2.243844
