19
Iteration:  1616charge 0 multiplicity 1
 C         0.351284         0.267147         0.235949
 C         1.515213        -0.574587        -0.271948
 C         1.528272        -1.239918        -1.708917
 C         2.500683        -0.146233        -1.161151
 O         3.901341        -0.583611        -0.788236
 C         4.208208        -0.370824         0.591681
 C         4.438877        -1.627520         1.360367
 C         3.100498        -0.783741         1.468510
 O         2.018299        -1.385082         0.807495
 H         0.690523         0.890594         1.094527
 H         0.056077         0.989478        -0.643731
 H        -0.452842        -0.280701         0.653331
 H         2.090294        -2.157452        -1.685137
 H         0.748841        -1.057749        -2.443568
 H         2.548242         0.933392        -1.311302
 H         4.799381         0.674763         0.590806
 H         4.400513        -2.377509         0.579954
 H         5.262141        -1.552745         2.045797
 H         2.863622        -0.287849         2.356754
