19
Iteration:  1660charge 0 multiplicity 1
 C         0.545068         0.439561         0.334400
 C         1.526102        -0.642551        -0.222651
 C         1.504424        -1.193460        -1.644420
 C         2.574555        -0.173463        -1.190709
 O         3.938888        -0.589623        -0.883598
 C         4.022701        -0.300039         0.506746
 C         4.462990        -1.441638         1.459072
 C         3.008618        -0.914446         1.454188
 O         2.016406        -1.618124         0.670789
 H         0.730617         0.934364         1.325323
 H         0.252003         1.219258        -0.507224
 H        -0.258729        -0.253826         0.608879
 H         1.914295        -2.132811        -1.438879
 H         0.676362        -1.028067        -2.290594
 H         2.480641         0.895181        -1.447653
 H         4.450909         0.795789         0.886806
 H         4.457352        -2.454253         1.091969
 H         5.017524        -1.099341         2.279501
 H         2.702889        -0.282195         2.242688
