19
Iteration:  2256
 C         0.406570         0.263246         0.368490
 C         1.466810        -0.611058        -0.269349
 C         1.613991        -1.136230        -1.658614
 C         2.592362        -0.123323        -1.150857
 O         3.891395        -0.615719        -0.883216
 C         4.196056        -0.426587         0.452752
 C         4.335249        -1.513422         1.527872
 C         3.065369        -0.727584         1.343318
 O         2.035613        -1.497510         0.758629
 H         0.992275         0.841016         1.007858
 H        -0.205224         0.937411        -0.321783
 H        -0.315132        -0.476414         0.894985
 H         2.171794        -2.038836        -1.527053
 H         0.756595        -1.097031        -2.363120
 H         2.496762         0.927600        -1.614469
 H         4.701705         0.494153         0.623902
 H         4.096967        -2.556603         1.071540
 H         5.129390        -1.357153         2.354152
 H         2.667019         0.002586         2.213615
