19
Iteration:  3150charge 0 multiplicity 1
 C         0.305337         0.203604         0.245048
 C         1.540590        -0.497127        -0.151599
 C         1.644610        -1.300857        -1.538845
 C         2.574493        -0.103781        -1.245255
 O         3.856807        -0.513769        -0.983036
 C         4.218438        -0.418373         0.486539
 C         4.389811        -1.691339         1.384764
 C         3.168146        -0.767324         1.456099
 O         1.962275        -1.279654         0.889575
 H         0.254323         0.236027         1.316380
 H         0.036301         1.173242        -0.339401
 H        -0.634935        -0.357860         0.101445
 H         2.032818        -2.330248        -1.418285
 H         1.010165        -1.241174        -2.354332
 H         2.274693         0.857475        -1.711104
 H         4.758483         0.538956         0.618667
 H         4.246372        -2.727791         0.976255
 H         5.239630        -1.768898         2.061137
 H         3.021057        -0.201728         2.319046
