19
Iteration:    78
 C         0.375896         0.397235         0.221089
 C         1.510948        -0.571805        -0.147771
 C         1.574772        -1.215074        -1.630449
 C         2.572299        -0.197459        -1.177859
 O         3.825666        -0.747199        -0.867596
 C         4.061742        -0.276562         0.467038
 C         4.501883        -1.446907         1.393256
 C         3.132627        -0.784814         1.466579
 O         2.071280        -1.548064         0.840742
 H         0.284995         0.641560         1.312015
 H         0.425768         1.328842        -0.347898
 H        -0.572134        -0.130948         0.004040
 H         1.815016        -2.255987        -1.743892
 H         0.752350        -0.895389        -2.285061
 H         2.544406         0.761904        -1.651925
 H         4.367102         0.773840         0.648342
 H         4.532717        -2.297764         0.793966
 H         5.298011        -1.361087         2.091465
 H         2.880496        -0.138543         2.226148
