19
Iteration:  4946charge 0 multiplicity 1
 C         0.182395         0.180936         0.217757
 C         1.451595        -0.506289        -0.228811
 C         1.590477        -1.166609        -1.617497
 C         2.625103        -0.131436        -1.127232
 O         3.989229        -0.606078        -0.911727
 C         4.317776        -0.477975         0.448835
 C         4.286758        -1.732475         1.344366
 C         3.184968        -0.682838         1.529152
 O         2.000641        -1.238292         0.909082
 H        -0.066093         0.892244        -0.539781
 H        -0.573500        -0.558433         0.130137
 H         0.326469         0.599347         1.196597
 H         1.840227        -2.165329        -1.699637
 H         0.724026        -0.989886        -2.353304
 H         2.625802         0.806253        -1.605149
 H         5.300878         0.152627         0.641420
 H         3.902808        -2.624151         0.889599
 H         5.150847        -1.731513         1.995015
 H         2.707749        -0.091662         2.309659
