19
Iteration:   159charge 0 multiplicity 1
 C         0.262050         0.235297         0.148707
 C         1.452206        -0.560594        -0.187596
 C         1.615342        -1.308064        -1.449127
 C         2.608179        -0.115616        -1.194477
 O         3.969118        -0.470650        -0.979264
 C         4.255066        -0.329072         0.480544
 C         4.299932        -1.690281         1.303001
 C         3.142813        -0.783886         1.408593
 O         1.980708        -1.347448         0.959959
 H         0.559939         1.311985         0.459713
 H        -0.475271         0.212836        -0.573467
 H        -0.204468        -0.302233         1.039924
 H         2.214916        -2.199791        -1.353300
 H         0.863980        -1.525654        -2.255122
 H         2.472267         0.986324        -1.478344
 H         5.029740         0.435769         0.837964
 H         4.109972        -2.502183         0.506404
 H         4.916571        -1.900742         2.263403
 H         3.128700        -0.220481         2.460139
