19
Iteration:  1786
 C         0.233178         0.202006         0.085814
 C         1.522664        -0.517718        -0.218580
 C         1.725510        -1.267888        -1.452674
 C         2.564421        -0.098483        -1.147243
 O         3.969195        -0.442129        -0.955505
 C         4.228067        -0.367344         0.499767
 C         4.357104        -1.772479         1.184308
 C         3.154114        -0.944431         1.518292
 O         1.873392        -1.187879         1.060926
 H         0.262495         0.879152         0.968894
 H        -0.113225         0.687358        -0.803307
 H        -0.501986        -0.766256         0.242770
 H         2.168211        -2.288509        -1.339095
 H         0.948872        -1.218763        -2.333735
 H         2.504206         0.785645        -1.799766
 H         4.665850         0.527062         0.824865
 H         4.238487        -2.453739         0.294511
 H         5.189851        -2.011766         1.871780
 H         3.174734        -0.278508         2.476757
