19
Iteration:  3735charge 0 multiplicity 1
 C         0.369820         0.426404         0.172670
 C         1.505550        -0.516190        -0.180633
 C         1.640035        -1.241793        -1.579537
 C         2.583990        -0.136797        -1.125917
 O         3.876043        -0.556515        -0.862368
 C         4.088588        -0.367259         0.518444
 C         4.490566        -1.575849         1.293055
 C         3.110440        -0.982279         1.413035
 O         1.932259        -1.493622         0.858318
 H        -0.116396         0.707924        -0.757290
 H        -0.290166         0.038302         0.918336
 H         0.672515         1.400022         0.579284
 H         2.206332        -2.239880        -1.371848
 H         0.841881        -0.946944        -2.308694
 H         2.601807         0.955345        -1.475855
 H         4.473213         0.651406         0.879658
 H         4.519025        -2.499269         0.765142
 H         5.226557        -1.505785         2.061436
 H         2.900090        -0.470176         2.357468
