19
Iteration:  4083charge 0 multiplicity 1
 C         0.408332         0.309111         0.258634
 C         1.499870        -0.536902        -0.217989
 C         1.547481        -1.210284        -1.557826
 C         2.550157        -0.150278        -1.214061
 O         3.875297        -0.618427        -0.820472
 C         4.233347        -0.347283         0.538857
 C         4.368762        -1.576626         1.382228
 C         3.130765        -0.810326         1.461422
 O         2.023180        -1.467304         0.693615
 H        -0.095457         0.856699        -0.557672
 H        -0.484911        -0.097824         0.996146
 H         0.694301         1.062423         1.049307
 H         1.725597        -2.222459        -1.685609
 H         0.814641        -0.948962        -2.347083
 H         2.505709         0.916257        -1.638030
 H         4.791646         0.630672         0.744684
 H         4.327376        -2.511796         0.854333
 H         5.000546        -1.721292         2.194945
 H         2.923112        -0.155920         2.315944
