19
Iteration:  2211charge 0 multiplicity 1
 C         0.481073         0.405076         0.267340
 C         1.478346        -0.620868        -0.277949
 C         1.455214        -1.181132        -1.648679
 C         2.587721        -0.178465        -1.184500
 O         3.899812        -0.664727        -0.811944
 C         4.080849        -0.224020         0.620688
 C         4.510017        -1.501783         1.423098
 C         3.084026        -0.865423         1.458205
 O         2.028560        -1.594610         0.689057
 H         0.951703         1.286660         0.646228
 H        -0.138943         0.685611        -0.593603
 H        -0.301650        -0.140504         0.962710
 H         1.522019        -2.283384        -1.649373
 H         0.863088        -0.633522        -2.379253
 H         2.651197         0.906240        -1.510421
 H         4.543615         0.780901         0.836268
 H         4.506155        -2.419352         0.841189
 H         5.178572        -1.292611         2.287533
 H         2.684739        -0.185101         2.340002
