19
Iteration:  3968charge 0 multiplicity 1
 C         0.375546         0.419849         0.224327
 C         1.483174        -0.571522        -0.271470
 C         1.609565        -1.359219        -1.542318
 C         2.572966        -0.180768        -1.107247
 O         3.906315        -0.450509        -0.842238
 C         4.197750        -0.358684         0.569054
 C         4.475358        -1.623665         1.231425
 C         3.129634        -0.937362         1.397443
 O         1.862963        -1.364903         0.862000
 H         0.042384         0.929683        -0.747782
 H        -0.334634        -0.226596         0.624023
 H         0.730197         1.081304         1.044147
 H         1.871463        -2.396303        -1.383244
 H         0.805835        -0.991557        -2.333600
 H         2.480780         0.599364        -1.831489
 H         4.654787         0.542933         0.808306
 H         4.611769        -2.673811         0.686592
 H         5.143768        -1.525955         2.159145
 H         2.992547        -0.380988         2.361554
