19
Iteration:  4822charge 0 multiplicity 1
 C         0.520961         0.477530         0.344788
 C         1.449468        -0.633113        -0.255776
 C         1.549215        -1.308498        -1.634657
 C         2.572335        -0.234406        -1.149051
 O         3.929516        -0.556057        -0.854240
 C         4.170191        -0.282935         0.551433
 C         4.307767        -1.559110         1.341144
 C         3.041498        -0.835111         1.450933
 O         2.034078        -1.493222         0.735641
 H         0.269742         1.030144        -0.550742
 H        -0.409014         0.109914         0.841910
 H         1.279061         0.844966         1.119871
 H         1.843554        -2.294303        -1.434134
 H         0.739188        -1.193632        -2.429213
 H         2.401486         0.736062        -1.732475
 H         4.762324         0.735863         0.898457
 H         4.176786        -2.469185         0.727301
 H         5.087726        -1.480577         2.158502
 H         2.534734        -0.157861         2.225611
