19
Iteration:  3220
 C         0.442072         0.401325         0.171633
 C         1.447012        -0.653279        -0.195646
 C         1.674690        -1.236856        -1.561509
 C         2.547045        -0.075737        -1.158213
 O         3.808021        -0.588983        -0.925777
 C         4.096955        -0.320188         0.506285
 C         4.564361        -1.555882         1.309339
 C         3.125636        -0.910809         1.501170
 O         1.898067        -1.462080         0.909347
 H         0.843656         1.374267         0.352883
 H        -0.453849         0.218722        -0.499464
 H        -0.091587         0.207898         1.127228
 H         2.212578        -2.151069        -1.904773
 H         0.716153        -1.218510        -2.213159
 H         2.531955         0.937403        -1.585552
 H         4.704671         0.493124         0.504652
 H         4.642187        -2.425729         0.717446
 H         5.339779        -1.309876         2.041316
 H         2.915534        -0.525106         2.565443
