19
Iteration:  2691
 C         0.285497         0.358026         0.089640
 C         1.543371        -0.578903        -0.193257
 C         1.532236        -1.339738        -1.443018
 C         2.567626        -0.145170        -1.189725
 O         3.857850        -0.634073        -0.897240
 C         4.111269        -0.285886         0.483570
 C         4.519926        -1.559876         1.256604
 C         3.200148        -0.870691         1.522665
 O         1.992417        -1.364964         0.915028
 H        -0.703369         0.037649        -0.270828
 H         0.125356         0.508837         1.189574
 H         0.430573         1.341355        -0.490922
 H         2.163828        -2.236830        -1.381252
 H         0.769962        -1.358297        -2.129448
 H         2.615741         0.825899        -1.646942
 H         4.543144         0.822670         0.571667
 H         4.533448        -2.462640         0.679861
 H         5.140120        -1.508857         2.136234
 H         3.094517        -0.350682         2.459978
