19
Iteration:  3867charge 0 multiplicity 1
 C         0.272182         0.165959         0.159207
 C         1.514689        -0.465665        -0.174605
 C         1.652589        -1.109848        -1.502086
 C         2.569401        -0.054608        -1.128770
 O         3.826959        -0.713388        -0.821000
 C         4.210460        -0.370873         0.492441
 C         4.475457        -1.649618         1.271800
 C         3.165925        -0.812181         1.445986
 O         1.972165        -1.338265         0.833021
 H         0.087115         0.855412        -0.686719
 H        -0.576567        -0.385056         0.071506
 H         0.256851         0.647994         1.116163
 H         1.747687        -2.294069        -1.402369
 H         0.914250        -0.871464        -2.369177
 H         2.779904         0.920355        -1.689178
 H         4.795852         0.580625         0.529956
 H         4.259811        -2.527619         0.737507
 H         5.144300        -1.658367         2.118356
 H         2.916829        -0.307817         2.336649
