19
Iteration:  4110
 C         0.435667         0.456348         0.196084
 C         1.483295        -0.614137        -0.210341
 C         1.638185        -1.238845        -1.662203
 C         2.491878        -0.148404        -1.163748
 O         3.891500        -0.498013        -0.851687
 C         4.130725        -0.403559         0.514863
 C         4.452828        -1.549586         1.291407
 C         3.123203        -0.967097         1.464339
 O         1.917926        -1.491405         0.883602
 H        -0.073261         0.947624        -0.636468
 H        -0.225083         0.227435         0.896577
 H         0.937247         1.228710         0.764017
 H         2.166364        -2.285779        -1.612877
 H         0.775223        -1.189488        -2.361817
 H         2.446703         0.890776        -1.347843
 H         4.545576         0.533818         0.781356
 H         4.673849        -2.581871         0.966504
 H         5.198640        -1.368620         2.165220
 H         2.967490        -0.423258         2.423881
