19
Iteration:   463
 C         0.184177         0.258758        -0.033665
 C         1.476106        -0.610747        -0.145210
 C         1.605163        -1.281654        -1.466994
 C         2.533134        -0.135715        -1.196896
 O         3.899538        -0.464789        -0.879168
 C         4.217467        -0.423200         0.486651
 C         4.522317        -1.731304         1.241444
 C         3.269395        -0.820379         1.505608
 O         1.894830        -1.235292         1.014877
 H         0.353018         0.604113         1.047729
 H         0.140290         1.072762        -0.635042
 H        -0.685560        -0.432939        -0.061561
 H         2.253853        -2.149830        -1.458879
 H         0.796274        -1.245064        -2.246476
 H         2.400028         0.887935        -1.532067
 H         4.758861         0.619506         0.753619
 H         4.618819        -2.557637         0.561305
 H         5.253184        -1.781706         2.038434
 H         3.143627        -0.306456         2.394182
