19
Iteration:  3224
 C         0.436633         0.373422         0.173993
 C         1.418992        -0.658837        -0.147342
 C         1.642711        -1.237246        -1.599932
 C         2.557560        -0.075440        -1.158171
 O         3.835498        -0.598242        -0.928508
 C         4.099677        -0.331284         0.529657
 C         4.541186        -1.513051         1.327316
 C         3.134824        -0.908245         1.484186
 O         1.879978        -1.464434         0.888162
 H         0.820816         1.397902         0.296514
 H        -0.375966         0.353937        -0.447230
 H         0.076564         0.199694         1.194738
 H         2.211638        -2.128571        -1.855434
 H         0.796199        -1.191946        -2.146618
 H         2.551197         0.903828        -1.597885
 H         4.843336         0.559001         0.462381
 H         4.729958        -2.396177         0.604878
 H         5.341286        -1.426416         2.072112
 H         3.005757        -0.494643         2.465504
