19
Iteration:  4246
 C         0.236784         0.332836         0.178431
 C         1.500240        -0.533968        -0.244463
 C         1.622957        -1.131621        -1.589369
 C         2.612162        -0.059027        -1.146741
 O         3.786643        -0.666281        -0.847239
 C         4.255398        -0.397011         0.488447
 C         4.513212        -1.588231         1.345382
 C         3.153254        -0.970993         1.509716
 O         1.984717        -1.395910         0.834520
 H        -0.101516         0.738814        -0.729688
 H        -0.523264        -0.389207         0.527394
 H         0.328426         1.065377         0.945992
 H         1.862070        -2.231591        -1.600957
 H         0.792655        -0.990034        -2.240937
 H         2.669949         0.964659        -1.634937
 H         4.817510         0.586231         0.772061
 H         4.493589        -2.509651         0.822995
 H         5.090173        -1.282262         2.203335
 H         2.940278        -0.215181         2.359087
