19
Iteration:    80
 C         0.389778         0.390593         0.199547
 C         1.510401        -0.566077        -0.142189
 C         1.569084        -1.201444        -1.603409
 C         2.590826        -0.195169        -1.160678
 O         3.831346        -0.740212        -0.872758
 C         4.044520        -0.285278         0.471243
 C         4.494994        -1.451691         1.382465
 C         3.139387        -0.777437         1.437432
 O         2.055078        -1.552502         0.847256
 H         0.285782         0.664038         1.335290
 H         0.414742         1.215853        -0.319300
 H        -0.580205        -0.174365        -0.011982
 H         1.808771        -2.285818        -1.677756
 H         0.763366        -0.924739        -2.290322
 H         2.523051         0.800918        -1.636105
 H         4.421453         0.809848         0.601047
 H         4.645104        -2.350329         0.765844
 H         5.265491        -1.323220         2.127852
 H         2.843064        -0.152078         2.220195
