19
Iteration:  2124
 C         0.173939         0.188972         0.100901
 C         1.491102        -0.511809        -0.201100
 C         1.671053        -1.247437        -1.521523
 C         2.538215        -0.088510        -1.121119
 O         3.953075        -0.402935        -0.910074
 C         4.321639        -0.460319         0.552042
 C         4.316418        -1.780246         1.288255
 C         3.195415        -0.769533         1.460104
 O         2.006494        -1.282764         0.940575
 H        -0.033463         0.549519         1.047627
 H        -0.028135         0.875489        -0.674033
 H        -0.653996        -0.591003        -0.038793
 H         2.100573        -2.269949        -1.541706
 H         0.956539        -1.209879        -2.335514
 H         2.300180         0.766840        -1.753068
 H         5.016184         0.198629         0.899557
 H         3.774373        -2.583990         0.829525
 H         5.233224        -2.116534         1.762237
 H         2.935968        -0.034707         2.349944
