19
Iteration:  1915
 C         0.359613         0.261838         0.174978
 C         1.555587        -0.593981        -0.191210
 C         1.485730        -1.116954        -1.665922
 C         2.582052        -0.171284        -1.153684
 O         3.843227        -0.636630        -0.831351
 C         4.174116        -0.358437         0.519675
 C         4.459579        -1.521824         1.353056
 C         3.109780        -0.821183         1.485772
 O         2.050087        -1.425989         0.850532
 H         0.464335         0.923888         1.032948
 H         0.061026         0.804522        -0.685400
 H        -0.517021        -0.519636         0.378723
 H         1.878019        -2.167909        -1.706050
 H         0.722184        -0.739814        -2.374363
 H         2.789020         0.797732        -1.646471
 H         4.677573         0.520282         0.706906
 H         4.289286        -2.514008         0.889066
 H         5.258585        -1.537390         2.133544
 H         2.807571        -0.135816         2.412381
