19
Iteration:  1923
 C         0.342467         0.243488         0.149712
 C         1.562644        -0.577705        -0.185657
 C         1.450481        -1.105494        -1.667653
 C         2.579608        -0.113890        -1.177578
 O         3.877775        -0.690109        -0.820988
 C         4.179064        -0.336802         0.467387
 C         4.428796        -1.517403         1.427901
 C         3.155534        -0.803900         1.491205
 O         2.046308        -1.513429         0.859366
 H         0.369924         0.987001         1.102196
 H         0.137104         0.975451        -0.716581
 H        -0.568214        -0.349423         0.433976
 H         1.766333        -2.117551        -1.880869
 H         0.679111        -0.651244        -2.280375
 H         2.587818         0.945924        -1.636083
 H         4.786037         0.654407         0.490521
 H         4.572425        -2.449025         0.796167
 H         5.108777        -1.398593         2.327810
 H         2.834878        -0.240418         2.406500
