19
Iteration:  2945charge 0 multiplicity 1
 C         0.281154         0.293490         0.092152
 C         1.526279        -0.613892        -0.226226
 C         1.564190        -1.179895        -1.645517
 C         2.581822        -0.128042        -1.182740
 O         3.820700        -0.570167        -0.865333
 C         4.253273        -0.439731         0.524477
 C         4.502440        -1.615438         1.285894
 C         3.138657        -0.836909         1.568389
 O         1.963361        -1.320033         0.956996
 H         0.454028         1.171567         0.675885
 H        -0.344961         0.475814        -0.807502
 H        -0.149594        -0.363897         0.785876
 H         2.035443        -2.255428        -1.672040
 H         0.636634        -1.125568        -2.275986
 H         2.467186         0.975422        -1.405266
 H         4.823805         0.405397         0.703756
 H         4.423090        -2.594584         0.863366
 H         5.324060        -1.518396         2.023903
 H         3.048999        -0.108905         2.364655
