19
Iteration:  3625
 C         0.302239         0.366261         0.102620
 C         1.476768        -0.630715        -0.233256
 C         1.523210        -1.180150        -1.613513
 C         2.509938        -0.156930        -1.187136
 O         3.864230        -0.507754        -0.816561
 C         4.226586        -0.420839         0.487917
 C         4.462354        -1.652512         1.332525
 C         3.211689        -0.892266         1.581473
 O         2.019080        -1.393173         0.897860
 H         0.192174         1.076884        -0.677465
 H        -0.621941        -0.274454         0.151607
 H         0.611489         0.932587         0.977259
 H         1.831433        -2.106102        -2.035898
 H         0.768563        -0.837483        -2.412292
 H         2.536430         0.911519        -1.527199
 H         4.759247         0.466610         0.919260
 H         4.348859        -2.620237         0.796534
 H         5.295408        -1.544542         2.084419
 H         3.030652        -0.216187         2.499074
