19
Iteration:  3583charge 0 multiplicity 1
 C         0.430477         0.469300         0.280424
 C         1.463668        -0.604353        -0.218069
 C         1.632669        -1.250488        -1.579126
 C         2.552329        -0.148911        -1.094051
 O         3.937124        -0.606966        -0.815414
 C         4.112854        -0.313228         0.540884
 C         4.436190        -1.527953         1.255918
 C         3.033487        -0.914058         1.401912
 O         1.972017        -1.497316         0.780769
 H        -0.310077         0.769224        -0.525970
 H        -0.338942        -0.069870         0.897343
 H         1.114342         1.204713         0.804925
 H         2.026842        -2.256483        -1.565497
 H         0.840107        -1.006012        -2.376907
 H         2.641744         0.790074        -1.704832
 H         4.622491         0.584421         0.582902
 H         4.462297        -2.469037         0.709212
 H         5.167962        -1.486384         2.079442
 H         2.724537        -0.350350         2.317811
