19
Iteration:  4209
 C         0.270848         0.166554         0.145113
 C         1.527983        -0.627430        -0.161615
 C         1.636108        -1.087487        -1.664763
 C         2.575264        -0.090428        -1.153824
 O         3.899555        -0.584296        -0.916124
 C         4.279565        -0.474660         0.468172
 C         4.301058        -1.631349         1.319067
 C         3.162055        -0.733670         1.523800
 O         1.997688        -1.366655         0.957402
 H         0.063109         1.046073        -0.485467
 H        -0.592515        -0.408962         0.220433
 H         0.391594         0.635967         1.144182
 H         1.911872        -2.096939        -1.828782
 H         0.701585        -0.638837        -2.103570
 H         2.480594         0.960681        -1.396055
 H         4.822771         0.449934         0.483630
 H         4.094013        -2.671190         1.026038
 H         5.092299        -1.875151         2.041457
 H         3.088016         0.124323         2.245299
