19
Iteration:  4887
 C         0.359073         0.419352         0.130710
 C         1.465035        -0.615324        -0.129392
 C         1.598349        -1.173053        -1.640896
 C         2.573109        -0.161647        -1.131229
 O         3.823960        -0.678044        -0.789493
 C         4.220250        -0.329361         0.521328
 C         4.449656        -1.592376         1.347691
 C         3.100531        -0.853668         1.441319
 O         2.030351        -1.459904         0.836580
 H        -0.021892         0.805978        -0.808644
 H        -0.569044         0.093277         0.587423
 H         0.420063         1.306375         0.760635
 H         1.911675        -2.216693        -1.886231
 H         0.845949        -0.723661        -2.233766
 H         2.661683         0.871220        -1.616758
 H         4.668554         0.670298         0.629822
 H         4.337707        -2.502505         0.738027
 H         5.290077        -1.745920         2.058563
 H         3.033689        -0.118444         2.268248
