19
Iteration:  2380charge 0 multiplicity 1
 C         0.259002         0.273846         0.157287
 C         1.489591        -0.519565        -0.209618
 C         1.629844        -1.370226        -1.509739
 C         2.576314        -0.204151        -1.218948
 O         3.972668        -0.237146        -0.861707
 C         4.245783        -0.427374         0.493754
 C         4.315146        -1.782535         1.332725
 C         3.204811        -0.802488         1.459574
 O         1.941899        -1.321721         0.888268
 H         0.511128         1.190235         0.776692
 H        -0.268741         0.385065        -0.750412
 H        -0.209422        -0.366394         0.838363
 H         1.928578        -2.390787        -1.384419
 H         0.822100        -1.389578        -2.297622
 H         2.499692         0.582319        -1.944791
 H         4.892318         0.355297         0.801163
 H         3.899888        -2.494576         0.706978
 H         5.079976        -1.930318         2.050213
 H         3.008817        -0.420488         2.438040
