19
Iteration:   822charge 0 multiplicity 1
 C         0.445599         0.299306         0.240088
 C         1.427961        -0.651038        -0.184641
 C         1.605076        -1.169476        -1.676932
 C         2.528310        -0.171176        -1.168484
 O         3.823916        -0.638319        -0.870479
 C         4.149746        -0.325359         0.453743
 C         4.458712        -1.423848         1.419360
 C         3.116759        -0.841767         1.481799
 O         2.054839        -1.479929         0.799362
 H         0.510164         0.473145         1.340449
 H         0.431606         1.177682        -0.319966
 H        -0.591176        -0.156465         0.221185
 H         1.750880        -2.270645        -1.695727
 H         0.856272        -0.800966        -2.446583
 H         2.510995         0.922787        -1.405190
 H         4.583179         0.622889         0.538210
 H         4.627955        -2.502034         1.158944
 H         5.147471        -1.213972         2.305468
 H         2.766333        -0.395934         2.374138
