19
Iteration:  2599
 C         0.202723         0.274634         0.128760
 C         1.442535        -0.612497        -0.212325
 C         1.573008        -1.298660        -1.593383
 C         2.588085        -0.133514        -1.149653
 O         3.867623        -0.574386        -0.863195
 C         4.262818        -0.361043         0.500489
 C         4.496598        -1.661628         1.324642
 C         3.216368        -0.742731         1.453224
 O         1.950131        -1.287454         0.960234
 H        -0.505687        -0.258407         0.897595
 H         0.671372         1.124705         0.648130
 H        -0.196102         0.423186        -0.892511
 H         1.933478        -2.382439        -1.771238
 H         0.756965        -1.043499        -2.380208
 H         2.460443         0.912023        -1.628302
 H         4.957352         0.462454         0.596186
 H         4.576114        -2.470217         0.547927
 H         5.139646        -1.749771         2.283956
 H         3.172930        -0.227796         2.448849
