19
Iteration:  1798charge 0 multiplicity 1
 C         0.202189         0.204678         0.044249
 C         1.491995        -0.533596        -0.126351
 C         1.745033        -1.296409        -1.436083
 C         2.666448        -0.095131        -1.233316
 O         3.950115        -0.409687        -0.901675
 C         4.186425        -0.408198         0.516654
 C         4.441961        -1.745585         1.092931
 C         3.159674        -0.897281         1.469705
 O         1.790961        -1.212792         1.078014
 H         0.334743         0.981608         0.902909
 H        -0.085073         0.810714        -0.830841
 H        -0.726797        -0.431858         0.400352
 H         2.396051        -2.190129        -1.243029
 H         0.880221        -1.428109        -2.181098
 H         2.467704         0.884077        -1.642840
 H         4.960932         0.332812         0.694361
 H         4.293979        -2.632968         0.454647
 H         5.170981        -1.914308         1.879835
 H         3.161199        -0.607872         2.534481
