19
Iteration:  2458
 C         0.313444         0.332074         0.140438
 C         1.456199        -0.609212        -0.195883
 C         1.568085        -1.131847        -1.665369
 C         2.552408        -0.208592        -1.135734
 O         3.810803        -0.699629        -0.857835
 C         4.240275        -0.336264         0.557631
 C         4.553692        -1.466624         1.359666
 C         3.167471        -0.880962         1.461504
 O         1.957844        -1.436755         0.863927
 H         0.597974         1.084383         0.970283
 H         0.103379         1.035983        -0.624444
 H        -0.484857        -0.358754         0.418984
 H         1.885346        -2.219133        -1.792958
 H         0.859951        -0.668122        -2.396924
 H         2.499132         0.872487        -1.330485
 H         4.727521         0.684643         0.665902
 H         4.705068        -2.469589         0.899285
 H         5.155924        -1.395280         2.270212
 H         2.869126        -0.206944         2.274099
