19
Iteration:  2547
 C         0.400304         0.404218         0.161723
 C         1.480278        -0.588787        -0.199203
 C         1.607261        -1.227625        -1.530433
 C         2.530194        -0.164611        -1.188209
 O         3.802152        -0.622472        -0.850320
 C         4.183470        -0.312144         0.448216
 C         4.463482        -1.522871         1.374824
 C         3.146496        -0.850646         1.454761
 O         2.005964        -1.511248         0.820538
 H         0.084045         0.124132         1.223688
 H         0.892207         1.370059         0.134020
 H        -0.612443         0.140000        -0.240873
 H         1.983173        -2.244913        -1.503966
 H         0.863303        -1.213067        -2.341164
 H         2.531950         0.807758        -1.745502
 H         4.558516         0.774108         0.847667
 H         4.451985        -2.559247         1.005261
 H         5.084410        -1.164036         2.245143
 H         2.932603        -0.181646         2.305949
