19
Iteration:  4739charge 0 multiplicity 1
 C         0.235017         0.201867         0.130427
 C         1.485781        -0.568301        -0.213839
 C         1.569017        -1.124399        -1.628279
 C         2.571485        -0.089102        -1.140462
 O         3.843091        -0.720811        -0.848294
 C         4.316755        -0.416729         0.503898
 C         4.393470        -1.647881         1.297887
 C         3.189524        -0.743589         1.539471
 O         2.045826        -1.263190         0.900571
 H        -0.262772         0.844581        -0.613519
 H        -0.589465        -0.559448         0.342825
 H         0.080915         0.975141         0.855695
 H         2.155509        -2.000447        -1.775680
 H         0.820590        -0.905514        -2.422333
 H         2.615958         0.933969        -1.371380
 H         4.949111         0.390821         0.635190
 H         4.176095        -2.512465         0.725492
 H         5.107603        -1.869193         2.088701
 H         3.034633        -0.323387         2.550841
