19
Iteration:  2499
 C         0.500463         0.295888         0.366409
 C         1.587511        -0.554580        -0.237547
 C         1.493298        -1.268055        -1.575257
 C         2.596577        -0.196740        -1.229764
 O         3.888968        -0.608304        -0.905336
 C         4.141908        -0.318776         0.476568
 C         4.357314        -1.466995         1.481909
 C         2.999141        -0.783270         1.442655
 O         2.045864        -1.464182         0.756470
 H         0.323142         0.235123         1.450399
 H         0.610431         1.342292        -0.025581
 H        -0.342475        -0.184040        -0.046371
 H         1.695763        -2.375482        -1.651894
 H         0.800514        -0.985762        -2.396950
 H         2.449732         0.701243        -1.874293
 H         4.776808         0.436926         0.555817
 H         4.286746        -2.360299         0.862440
 H         5.113076        -1.368904         2.220044
 H         2.656558        -0.201737         2.304425
