19
Iteration:  1626
 C         0.453640         0.311324         0.239368
 C         1.445757        -0.687428        -0.250451
 C         1.537047        -1.194461        -1.663616
 C         2.538829        -0.141582        -1.183102
 O         3.912174        -0.557786        -0.803924
 C         4.191402        -0.317999         0.537242
 C         4.423847        -1.559862         1.375962
 C         3.146913        -0.794305         1.458531
 O         1.957096        -1.465742         0.770971
 H         0.901530         0.833644         1.163110
 H        -0.011307         1.134086        -0.441552
 H        -0.395784        -0.254586         0.509546
 H         1.820427        -2.250743        -1.750576
 H         0.700674        -1.011326        -2.371781
 H         2.414336         0.897787        -1.505713
 H         4.862835         0.620254         0.922482
 H         4.448858        -2.572410         0.970041
 H         5.082705        -1.518277         2.254362
 H         2.857157        -0.322481         2.322915
