19
Iteration:  1084
 C         0.378919         0.262494         0.255473
 C         1.546274        -0.569421        -0.195655
 C         1.562027        -1.159425        -1.571270
 C         2.648521        -0.201073        -1.151976
 O         3.871851        -0.646388        -0.834723
 C         4.168613        -0.280039         0.449308
 C         4.389894        -1.473156         1.298239
 C         3.040167        -0.876325         1.458317
 O         1.971571        -1.453939         0.829141
 H         0.697482         1.082567         0.961273
 H        -0.034195         0.612326        -0.632241
 H        -0.447040        -0.378157         0.778433
 H         1.951055        -2.149223        -1.516846
 H         1.024597        -0.870794        -2.447397
 H         2.739573         0.816657        -1.673017
 H         4.760877         0.602857         0.658682
 H         4.547134        -2.396210         0.755053
 H         5.091526        -1.420160         2.106869
 H         2.796708        -0.165933         2.307950
