19
Iteration:   727charge 0 multiplicity 1
 C         0.232421         0.255310         0.062314
 C         1.537607        -0.616252        -0.145752
 C         1.687410        -1.289882        -1.466354
 C         2.560324        -0.095347        -1.102120
 O         3.935608        -0.442571        -0.853293
 C         4.224872        -0.405721         0.452249
 C         4.333570        -1.652846         1.167613
 C         3.156545        -0.849958         1.450397
 O         1.969460        -1.331576         0.977123
 H         0.262405         1.410260         0.271283
 H        -0.303058         0.263594        -0.940258
 H        -0.438017        -0.200733         0.790229
 H         2.217953        -2.212027        -1.656597
 H         0.801904        -1.013676        -2.067966
 H         2.292444         0.868243        -1.497590
 H         4.843623         0.561541         0.853674
 H         4.192325        -2.618835         0.695606
 H         5.156130        -1.871983         1.834380
 H         3.143320        -0.367043         2.440446
