19
Iteration:  3874
 C         0.207271         0.263085         0.163660
 C         1.439370        -0.491138        -0.150496
 C         1.667607        -1.141579        -1.544060
 C         2.632864        -0.047491        -1.161162
 O         3.834467        -0.659068        -0.852366
 C         4.215894        -0.401823         0.484903
 C         4.469497        -1.657992         1.280590
 C         3.183855        -0.834896         1.470826
 O         1.976466        -1.361566         0.845010
 H         0.141839         0.788689        -0.783327
 H        -0.631996        -0.587479         0.214189
 H         0.232494         0.748525         1.152499
 H         1.958199        -2.190579        -1.371777
 H         0.911338        -1.050395        -2.244008
 H         2.656104         0.903828        -1.676910
 H         4.817632         0.575470         0.643946
 H         4.368124        -2.686563         0.883452
 H         5.147561        -1.627835         2.085735
 H         3.065681        -0.227300         2.401376
