19
Iteration:  4498charge 0 multiplicity 1
 C         0.503574         0.397111         0.087360
 C         1.381563        -0.690147        -0.138174
 C         1.544038        -1.218096        -1.551755
 C         2.561400        -0.176491        -1.164148
 O         3.905551        -0.494824        -0.852088
 C         4.125803        -0.294175         0.522319
 C         4.451648        -1.556686         1.239639
 C         3.136941        -0.963263         1.466141
 O         1.957616        -1.451890         0.946588
 H         0.204439         0.921365        -0.837959
 H        -0.483040         0.031148         0.542653
 H         1.012614         1.115277         0.799700
 H         1.808027        -2.256479        -1.833069
 H         0.892571        -0.784534        -2.293204
 H         2.336945         0.713768        -1.686889
 H         4.746101         0.554965         0.757819
 H         4.553085        -2.416275         0.565513
 H         5.170220        -1.541250         2.098527
 H         2.924238        -0.601963         2.562879
