19
Iteration:  2357charge 0 multiplicity 1
 C         0.313421         0.273072         0.034120
 C         1.513564        -0.599676        -0.168922
 C         1.667161        -1.347848        -1.457535
 C         2.539301        -0.185767        -1.206478
 O         3.933289        -0.314752        -0.847962
 C         4.194439        -0.429680         0.516085
 C         4.375508        -1.747817         1.140840
 C         3.164251        -0.806619         1.582775
 O         1.922984        -1.281446         0.947645
 H         0.678106         0.892028         0.883465
 H         0.068190         0.805688        -0.877392
 H        -0.470328        -0.309123         0.421044
 H         1.995994        -2.396125        -1.522177
 H         0.865284        -1.209580        -2.178029
 H         2.371482         0.780898        -1.698283
 H         4.757161         0.336364         0.790431
 H         4.180021        -2.625993         0.556125
 H         5.124521        -1.688355         1.909335
 H         2.957337        -0.331335         2.553415
