19
Iteration:  1903charge 0 multiplicity 1
 C         0.343577         0.247771         0.201017
 C         1.451210        -0.576729        -0.248850
 C         1.655357        -1.216303        -1.554439
 C         2.586252        -0.149670        -1.185775
 O         3.879836        -0.599477        -0.844031
 C         4.153012        -0.362397         0.547063
 C         4.460327        -1.623899         1.295553
 C         3.124222        -0.792228         1.491897
 O         1.986454        -1.339418         0.810528
 H         0.717834         0.893185         1.058048
 H        -0.071377         0.897265        -0.572263
 H        -0.522109        -0.451408         0.620084
 H         1.903152        -2.269650        -1.714133
 H         0.899098        -0.911784        -2.298729
 H         2.277036         0.876885        -1.515037
 H         4.664571         0.541855         0.796036
 H         4.185793        -2.616507         0.825914
 H         5.318267        -1.550839         2.029802
 H         2.921265        -0.134220         2.464217
