19
Iteration:  1299
 C         0.284515         0.335615         0.079676
 C         1.463331        -0.542675        -0.158799
 C         1.685841        -1.320076        -1.448821
 C         2.544586        -0.223362        -1.112613
 O         3.913214        -0.355470        -0.868120
 C         4.263394        -0.330033         0.549626
 C         4.373446        -1.701638         1.172500
 C         3.154052        -0.890271         1.415295
 O         1.942646        -1.383861         0.945151
 H         0.578168         1.135119         0.671037
 H        -0.252006         0.520527        -0.928964
 H        -0.455978        -0.330105         0.497180
 H         1.958864        -2.366484        -1.271279
 H         0.966599        -1.044344        -2.196566
 H         2.380410         0.572857        -1.763310
 H         4.847978         0.607158         0.770555
 H         4.426916        -2.421034         0.352746
 H         5.089766        -1.758918         1.998476
 H         2.975457        -0.436620         2.400583
