19
Iteration:   360
 C         0.407815         0.340280         0.167597
 C         1.481988        -0.592935        -0.173586
 C         1.562150        -1.200656        -1.495431
 C         2.565349        -0.215231        -1.126724
 O         3.841145        -0.612843        -0.853021
 C         4.195864        -0.285440         0.503944
 C         4.422031        -1.492167         1.324570
 C         3.111837        -0.830556         1.447135
 O         2.040786        -1.492915         0.772643
 H         0.746963         1.263714         0.531023
 H        -0.313225         0.450159        -0.724404
 H        -0.144843        -0.179533         0.961788
 H         1.801578        -2.265860        -1.641401
 H         0.775899        -1.009081        -2.272641
 H         2.495273         0.815716        -1.543913
 H         4.828608         0.598802         0.660146
 H         4.385079        -2.379037         0.687082
 H         5.116671        -1.482281         2.197514
 H         2.674079        -0.233641         2.378817
