19
Iteration:  4266
 C         0.306074         0.362842         0.201984
 C         1.507985        -0.509569        -0.185123
 C         1.549412        -1.144905        -1.539905
 C         2.574673        -0.189399        -1.210903
 O         3.973341        -0.599764        -0.869586
 C         4.112078        -0.360280         0.551741
 C         4.542770        -1.607161         1.350220
 C         3.091850        -0.931583         1.447824
 O         1.935559        -1.461156         0.794083
 H        -0.197562         0.760486        -0.625683
 H        -0.333853        -0.232632         0.742007
 H         0.722366         1.136335         0.837388
 H         1.970251        -2.189911        -1.498282
 H         0.909116        -0.861531        -2.360924
 H         2.567852         0.835873        -1.698805
 H         4.435170         0.776551         0.731711
 H         4.564269        -2.429927         0.650741
 H         5.047720        -1.270644         2.203041
 H         2.993748        -0.425860         2.552769
