19
Iteration:  2036charge 0 multiplicity 1
 C         0.344252         0.386959         0.050559
 C         1.498101        -0.619332        -0.233082
 C         1.606807        -1.281455        -1.513931
 C         2.532230        -0.125287        -1.145224
 O         3.867410        -0.405716        -0.853370
 C         4.175814        -0.382109         0.563744
 C         4.477445        -1.681200         1.306774
 C         3.139081        -0.947908         1.422660
 O         1.963555        -1.377850         0.893553
 H         0.667432         1.229195         0.575533
 H        -0.137890         0.669736        -0.829817
 H        -0.274539        -0.116404         0.859669
 H         2.200481        -2.158274        -1.272296
 H         0.791439        -1.305078        -2.277948
 H         2.292046         0.863144        -1.541103
 H         4.580038         0.473655         0.796943
 H         4.498380        -2.636678         0.815937
 H         5.188514        -1.741117         2.073787
 H         3.051056        -0.361318         2.455197
