19
Iteration:  3726
 C         0.351092         0.406664         0.120752
 C         1.505126        -0.552851        -0.190267
 C         1.604066        -1.154345        -1.514588
 C         2.569310        -0.125351        -1.093007
 O         3.839352        -0.546784        -0.839544
 C         4.183355        -0.390286         0.483939
 C         4.411225        -1.594107         1.253432
 C         3.082477        -0.923990         1.518945
 O         2.023785        -1.505531         0.848591
 H        -0.040897         0.479759        -0.933260
 H        -0.472718         0.026343         0.676249
 H         0.877307         1.258003         0.610189
 H         2.191249        -2.170146        -1.525254
 H         1.009539        -1.067784        -2.438543
 H         2.446845         0.864420        -1.614849
 H         4.638181         0.471744         0.830023
 H         4.391367        -2.553024         0.793417
 H         5.237654        -1.527442         1.849644
 H         2.867063        -0.365335         2.380747
