19
Iteration:  1964charge 0 multiplicity 1
 C         0.426606         0.313883         0.337382
 C         1.482393        -0.575087        -0.251236
 C         1.600616        -1.133915        -1.703407
 C         2.541261        -0.128893        -1.225552
 O         3.831481        -0.743952        -0.880104
 C         4.165358        -0.335244         0.497745
 C         4.423781        -1.417562         1.464458
 C         3.065276        -0.807210         1.456282
 O         2.023076        -1.563403         0.777684
 H         0.592176         0.566791         1.412847
 H         0.180037         1.247439        -0.273752
 H        -0.407637        -0.301324         0.478094
 H         1.903634        -2.142692        -1.633643
 H         0.929533        -0.723770        -2.451955
 H         2.698251         0.917975        -1.439923
 H         4.744507         0.698220         0.650807
 H         4.656806        -2.471634         1.277844
 H         5.184055        -1.119809         2.179960
 H         2.816651        -0.188187         2.239568
