19
Iteration:  2112charge 0 multiplicity 1
 C         0.078036         0.160526         0.071982
 C         1.503726        -0.487373        -0.179843
 C         1.706279        -1.270435        -1.501422
 C         2.566674        -0.008652        -1.204228
 O         3.954303        -0.402686        -0.882203
 C         4.211604        -0.509251         0.456722
 C         4.377430        -1.857042         1.289765
 C         3.235753        -0.801723         1.533383
 O         1.981300        -1.227371         0.934786
 H         0.071428         0.701676         0.993900
 H        -0.193525         0.856668        -0.655968
 H        -0.649032        -0.733578         0.061479
 H         2.167287        -2.227161        -1.255258
 H         0.973053        -1.104776        -2.310670
 H         2.525854         0.953537        -1.694235
 H         4.924289         0.224325         0.727435
 H         4.093423        -2.818605         0.929772
 H         5.114369        -1.785671         2.016237
 H         3.291676        -0.113245         2.469317
