19
Iteration:  4814charge 0 multiplicity 1
 C         0.541605         0.379034         0.292061
 C         1.472283        -0.615397        -0.241698
 C         1.517018        -1.301303        -1.643615
 C         2.533196        -0.207109        -1.131992
 O         3.914809        -0.565159        -0.809326
 C         4.166462        -0.342639         0.536063
 C         4.371024        -1.550053         1.368466
 C         3.036206        -0.763349         1.423542
 O         2.022325        -1.488810         0.718178
 H         0.267324         1.149774        -0.390261
 H        -0.401522         0.216029         0.773831
 H         0.951819         1.060347         1.082935
 H         1.857839        -2.358425        -1.518547
 H         0.798997        -1.041835        -2.361243
 H         2.500081         0.741281        -1.586685
 H         4.701762         0.629426         0.877258
 H         4.179742        -2.404513         0.768489
 H         5.145212        -1.716612         2.080453
 H         2.790269        -0.039644         2.211092
