19
Iteration:  3637
 C         0.263431         0.276567         0.118419
 C         1.496914        -0.566674        -0.186061
 C         1.558065        -1.210341        -1.608403
 C         2.594961        -0.144031        -1.104799
 O         3.838728        -0.561777        -0.803684
 C         4.308277        -0.387762         0.549692
 C         4.404318        -1.692453         1.262169
 C         3.177422        -0.791703         1.456443
 O         2.008202        -1.337547         0.839597
 H         0.149508         1.129817        -0.561612
 H        -0.718295        -0.251513         0.166389
 H         0.317821         0.604937         1.180126
 H         1.921427        -2.215177        -1.531846
 H         0.778691        -0.722370        -2.310327
 H         2.493450         0.912054        -1.544446
 H         4.989717         0.465262         0.561227
 H         4.244843        -2.665394         0.839349
 H         5.196411        -1.726110         2.041615
 H         2.876574        -0.373146         2.454713
