19
Iteration:   834
 C         0.363969         0.315997         0.314663
 C         1.523724        -0.668764        -0.278370
 C         1.517079        -1.162508        -1.786504
 C         2.512995        -0.075234        -1.187092
 O         3.799539        -0.710147        -0.813806
 C         4.176950        -0.308549         0.467431
 C         4.540720        -1.434494         1.475474
 C         3.137776        -0.818933         1.464515
 O         2.027941        -1.557024         0.858968
 H         0.476014         0.635536         1.428668
 H         0.456391         1.186800        -0.273172
 H        -0.619974        -0.087169         0.008696
 H         2.097726        -2.093581        -1.946727
 H         0.651671        -0.913627        -2.444134
 H         2.565943         0.899553        -1.693863
 H         4.653842         0.652501         0.622279
 H         4.567389        -2.476737         1.109945
 H         5.088937        -1.105554         2.384664
 H         2.980522        -0.036816         2.158681
