19
Iteration:  2597
 C         0.204695         0.277082         0.126714
 C         1.450534        -0.614608        -0.232521
 C         1.565683        -1.286254        -1.590293
 C         2.584549        -0.144672        -1.149431
 O         3.866632        -0.574833        -0.845006
 C         4.255342        -0.351121         0.487594
 C         4.514353        -1.652202         1.326654
 C         3.218989        -0.750112         1.444457
 O         1.946826        -1.297403         0.972595
 H        -0.514199        -0.211783         0.858126
 H         0.670518         1.167745         0.607248
 H        -0.266773         0.387100        -0.847459
 H         1.891013        -2.422274        -1.772262
 H         0.802140        -0.989308        -2.377950
 H         2.514156         0.911066        -1.592571
 H         4.933938         0.388886         0.583814
 H         4.567652        -2.430897         0.523392
 H         5.105718        -1.750900         2.299368
 H         3.187418        -0.255870         2.443453
