19
Iteration:  3752
 C         0.416708         0.434241         0.245284
 C         1.443880        -0.631539        -0.284870
 C         1.561633        -1.196443        -1.584823
 C         2.591199        -0.183022        -1.220349
 O         3.935597        -0.563233        -0.827712
 C         4.166385        -0.286947         0.555514
 C         4.510088        -1.571231         1.311730
 C         3.094972        -1.008246         1.460323
 O         1.855046        -1.402720         0.832017
 H        -0.354684         0.560469        -0.552701
 H        -0.152556        -0.083717         1.113835
 H         1.090461         1.122170         0.786546
 H         1.915213        -2.144983        -1.646847
 H         0.905844        -0.958798        -2.407249
 H         2.414477         0.676761        -1.790659
 H         4.546400         0.726534         0.805666
 H         5.063567        -2.325501         0.683182
 H         5.031020        -1.653062         2.368599
 H         2.904581        -0.576282         2.491963
