19
Iteration:  2429
 C         0.312979         0.249982         0.096596
 C         1.535077        -0.590602        -0.183705
 C         1.615143        -1.173197        -1.558942
 C         2.602045        -0.090190        -1.219217
 O         3.837453        -0.605456        -0.907111
 C         4.187980        -0.365124         0.591686
 C         4.433873        -1.599510         1.291333
 C         3.117284        -0.879101         1.497735
 O         1.985985        -1.375131         0.953926
 H         0.596078         1.216373         0.531787
 H        -0.215445         0.357529        -0.909046
 H        -0.248094        -0.246572         0.981854
 H         2.022172        -2.154904        -1.873470
 H         0.817438        -0.947024        -2.211876
 H         2.414169         0.956535        -1.581701
 H         4.801299         0.641218         0.835768
 H         4.271660        -2.458363         0.585060
 H         5.160582        -1.628467         2.143978
 H         2.991330        -0.106170         2.285812
