19
Iteration:  1768
 C         0.197737         0.154658         0.097031
 C         1.529531        -0.554799        -0.177085
 C         1.614156        -1.272847        -1.559023
 C         2.573253        -0.149097        -1.158559
 O         3.899615        -0.425065        -0.801307
 C         4.267313        -0.418288         0.536045
 C         4.364956        -1.770186         1.196119
 C         3.201867        -0.772357         1.459064
 O         1.983319        -1.218283         0.941746
 H         0.384389         0.928628         0.900842
 H        -0.208078         0.801055        -0.759481
 H        -0.579817        -0.467911         0.240073
 H         2.057383        -2.257448        -1.610292
 H         0.855014        -1.035760        -2.259802
 H         2.548025         0.841098        -1.584350
 H         5.085688         0.395980         0.684433
 H         4.017840        -2.637199         0.696998
 H         4.999441        -1.896490         2.040773
 H         3.169062        -0.400927         2.405327
