19
Iteration:  4801
 C         0.445989         0.393584         0.234539
 C         1.495818        -0.637426        -0.220919
 C         1.532799        -1.195321        -1.559736
 C         2.591506        -0.189933        -1.240681
 O         3.835641        -0.580759        -0.842800
 C         4.159846        -0.387633         0.513915
 C         4.415900        -1.584759         1.408467
 C         3.100993        -0.776019         1.438612
 O         2.016384        -1.461635         0.804326
 H         0.211970         0.959822        -0.623633
 H        -0.325126        -0.299275         0.433250
 H         0.930244         0.858159         1.141375
 H         1.810027        -2.165225        -1.820369
 H         0.840260        -0.753494        -2.326634
 H         2.481732         0.851501        -1.628317
 H         4.779541         0.640041         0.600729
 H         4.312867        -2.561911         0.932451
 H         5.054547        -1.466775         2.322032
 H         2.794568        -0.288513         2.411503
