19
Iteration:  4690charge 0 multiplicity 1
 C         0.341937         0.387039         0.182634
 C         1.430302        -0.564078        -0.203142
 C         1.642367        -1.388259        -1.512356
 C         2.525706        -0.187149        -1.116859
 O         4.000936        -0.339834        -0.924060
 C         4.224444        -0.375275         0.446744
 C         4.361920        -1.752848         1.330603
 C         3.162480        -0.826317         1.447470
 O         1.908113        -1.409322         0.862871
 H        -0.023387         1.134718        -0.469650
 H        -0.540554         0.052192         0.615925
 H         0.755528         1.179865         0.862678
 H         2.001739        -2.458553        -1.240713
 H         0.947153        -1.340800        -2.279181
 H         2.326239         0.802080        -1.653413
 H         4.986158         0.451425         0.830070
 H         4.151658        -2.678212         0.755241
 H         5.141683        -1.904852         2.094377
 H         2.879067        -0.193291         2.276942
