19
Iteration:  4287
 C         0.498489         0.392532         0.268948
 C         1.501366        -0.610252        -0.239846
 C         1.484677        -1.303198        -1.654942
 C         2.551365        -0.197680        -1.159534
 O         3.931092        -0.488161        -0.768030
 C         4.166043        -0.288431         0.555977
 C         4.386938        -1.566124         1.320078
 C         3.051585        -0.883279         1.393876
 O         1.976050        -1.505369         0.811951
 H        -0.018206         0.871332        -0.565854
 H        -0.258065        -0.061494         0.806236
 H         1.102675         1.195555         0.805990
 H         1.872039        -2.355250        -1.736858
 H         0.846684        -0.772633        -2.339274
 H         2.560228         0.806992        -1.687896
 H         4.822412         0.691422         0.642982
 H         4.304602        -2.452601         0.649829
 H         5.114900        -1.577824         2.127280
 H         2.888539        -0.406336         2.500240
