19
Iteration:  4092charge 0 multiplicity 1
 C         0.399809         0.423935         0.283498
 C         1.416698        -0.620758        -0.242919
 C         1.590550        -1.242188        -1.589995
 C         2.549612        -0.135267        -1.145271
 O         3.844820        -0.574603        -0.864493
 C         4.171946        -0.352675         0.538063
 C         4.464630        -1.634147         1.382878
 C         3.123657        -0.828726         1.462734
 O         2.007443        -1.472156         0.738914
 H        -0.064480         0.857661        -0.618051
 H        -0.411298        -0.187546         0.841690
 H         0.914827         1.262853         0.836492
 H         2.016716        -2.210776        -1.499923
 H         1.091871        -0.815231        -2.398816
 H         2.585175         0.801380        -1.749622
 H         4.776493         0.638824         0.675558
 H         4.469158        -2.545445         0.851675
 H         5.143084        -1.588720         2.205620
 H         2.674532        -0.222600         2.312558
