19
Iteration:  4816charge 0 multiplicity 1
 C         0.543725         0.393548         0.306753
 C         1.469719        -0.613860        -0.247998
 C         1.519277        -1.304275        -1.652969
 C         2.538105        -0.211633        -1.123423
 O         3.921709        -0.565889        -0.818669
 C         4.175681        -0.315775         0.542406
 C         4.357959        -1.553599         1.362453
 C         3.033897        -0.776360         1.433537
 O         2.025848        -1.489733         0.718746
 H         0.233753         1.137934        -0.471529
 H        -0.417195         0.266565         0.818524
 H         1.002411         0.980588         1.106572
 H         1.871440        -2.377532        -1.469260
 H         0.779025        -1.090720        -2.358428
 H         2.469182         0.713177        -1.614250
 H         4.653391         0.541023         0.878861
 H         4.161400        -2.408984         0.744728
 H         5.132759        -1.660348         2.068518
 H         2.733125        -0.064413         2.159231
