19
Iteration:  3281charge 0 multiplicity 1
 C         0.386767         0.313338         0.371343
 C         1.493139        -0.548345        -0.249393
 C         1.491737        -1.242676        -1.566828
 C         2.581059        -0.095270        -1.253564
 O         3.881790        -0.602454        -0.931155
 C         4.191464        -0.376142         0.497157
 C         4.363269        -1.586997         1.506478
 C         3.111864        -0.798249         1.415912
 O         2.096706        -1.439209         0.725780
 H         0.338724         1.336846        -0.017530
 H        -0.562587        -0.127868        -0.080888
 H         0.417998        -0.041502         1.381739
 H         1.986563        -2.176472        -1.478590
 H         0.620941        -1.101767        -2.305462
 H         2.632558         0.943740        -1.725384
 H         4.734030         0.697552         0.674264
 H         4.302019        -2.604369         1.177835
 H         4.996395        -1.425014         2.421353
 H         2.888734        -0.252803         2.293745
