19
Iteration:  4569charge 0 multiplicity 1
 C         0.301063         0.139237         0.343227
 C         1.517803        -0.491766        -0.231219
 C         1.482769        -1.060063        -1.643066
 C         2.626963        -0.165349        -1.224075
 O         3.965128        -0.714520        -0.939813
 C         4.267347        -0.480423         0.437200
 C         4.330445        -1.536286         1.458443
 C         3.116446        -0.699196         1.492278
 O         2.012927        -1.376601         0.851343
 H        -0.227284         0.945159        -0.131035
 H        -0.454360        -0.558888         0.544967
 H         0.679804         0.612206         1.232130
 H         1.704923        -2.088987        -1.818115
 H         0.941354        -0.707920        -2.630796
 H         2.605893         0.883668        -1.714789
 H         4.831710         0.506495         0.508972
 H         4.174206        -2.508964         1.044182
 H         4.962626        -1.529179         2.302822
 H         2.863006        -0.002722         2.199451
