19
Iteration:   744charge 0 multiplicity 1
 C         0.312609         0.250542         0.079001
 C         1.447273        -0.595949        -0.153487
 C         1.671944        -1.266542        -1.548248
 C         2.542656        -0.130650        -1.128072
 O         3.865093        -0.401407        -0.955996
 C         4.214927        -0.318535         0.535453
 C         4.385900        -1.730282         1.287078
 C         3.203818        -0.853012         1.506733
 O         1.951739        -1.362554         0.949003
 H         0.708085         1.239773         0.328912
 H        -0.333027         0.474740        -0.751741
 H        -0.283369        -0.153850         0.979126
 H         2.211155        -2.240092        -1.391868
 H         1.021185        -1.354269        -2.458183
 H         2.384977         0.876217        -1.624442
 H         4.873503         0.398687         0.700247
 H         4.279273        -2.564699         0.535660
 H         5.140941        -1.806856         2.135428
 H         3.014274        -0.334342         2.438756
