19
Iteration:    79charge 0 multiplicity 1
 C         0.383271         0.395461         0.209127
 C         1.510491        -0.568215        -0.144456
 C         1.572429        -1.208527        -1.617466
 C         2.581925        -0.195866        -1.169190
 O         3.828354        -0.744135        -0.870437
 C         4.052046        -0.281187         0.469301
 C         4.498695        -1.449991         1.388126
 C         3.136158        -0.779641         1.452741
 O         2.063429        -1.551015         0.844096
 H         0.282541         0.654339         1.330260
 H         0.419443         1.259723        -0.325143
 H        -0.578595        -0.155629        -0.004294
 H         1.810407        -2.271766        -1.712598
 H         0.756820        -0.910915        -2.287764
 H         2.532381         0.778796        -1.643872
 H         4.394127         0.797773         0.627568
 H         4.589855        -2.319458         0.781729
 H         5.280162        -1.344012         2.105691
 H         2.865763        -0.152624         2.211582
