19
Iteration:  4806
 C         0.492066         0.386874         0.264229
 C         1.482104        -0.642877        -0.220516
 C         1.521901        -1.231683        -1.570679
 C         2.560412        -0.192627        -1.215386
 O         3.861909        -0.564447        -0.807869
 C         4.158246        -0.385011         0.525544
 C         4.413725        -1.561711         1.399745
 C         3.074031        -0.739977         1.417415
 O         2.013395        -1.476325         0.759891
 H         0.298303         1.194510        -0.544980
 H        -0.386149        -0.310681         0.526530
 H         0.950643         1.022012         1.002588
 H         1.824646        -2.322660        -1.803958
 H         0.905508        -0.859462        -2.347212
 H         2.536489         0.824939        -1.557501
 H         4.635637         0.479626         0.606262
 H         4.268075        -2.500523         0.868388
 H         5.088125        -1.677796         2.216729
 H         2.880838        -0.226458         2.314752
