19
Iteration:  3851charge 0 multiplicity 1
 C         0.257063         0.243789         0.167973
 C         1.520762        -0.539960        -0.194956
 C         1.505045        -1.112499        -1.617135
 C         2.665616        -0.137444        -1.159108
 O         3.847309        -0.727728        -0.812190
 C         4.233628        -0.353834         0.508752
 C         4.391512        -1.578253         1.293723
 C         3.159236        -0.815875         1.478284
 O         2.022015        -1.332692         0.864840
 H         0.060818         1.123830        -0.504099
 H        -0.490151        -0.673023         0.097314
 H         0.341266         0.290651         1.280332
 H         1.965450        -1.969708        -1.931175
 H         0.686637        -0.773477        -2.192932
 H         2.652714         0.863735        -1.483280
 H         4.798573         0.596179         0.659718
 H         4.466246        -2.509537         0.665573
 H         5.160844        -1.661419         2.115388
 H         3.092663        -0.220939         2.440946
