19
Iteration:  2685charge 0 multiplicity 1
 C         0.308327         0.319926         0.086398
 C         1.479955        -0.574518        -0.150775
 C         1.573522        -1.349014        -1.433742
 C         2.492247        -0.173140        -1.251358
 O         3.891122        -0.598792        -0.860560
 C         4.159926        -0.344053         0.501566
 C         4.534680        -1.524867         1.263219
 C         3.185812        -0.882449         1.495894
 O         1.994013        -1.315799         0.904103
 H        -0.690269         0.055057        -0.306641
 H         0.146188         0.611990         1.118696
 H         0.328827         1.322816        -0.293776
 H         2.132110        -2.319041        -1.480920
 H         0.722322        -1.209955        -2.258132
 H         2.592437         0.865382        -1.687027
 H         4.629539         0.557513         0.561522
 H         4.276001        -2.407292         0.612157
 H         5.229821        -1.616675         2.165871
 H         3.097969        -0.319456         2.459395
