19
Iteration:  1589charge 0 multiplicity 1
 C         0.174847         0.196396         0.067204
 C         1.523322        -0.488424        -0.164206
 C         1.678487        -1.151682        -1.512685
 C         2.605649        -0.054634        -1.183896
 O         3.914796        -0.584846        -0.836127
 C         4.217262        -0.381732         0.464421
 C         4.433875        -1.703360         1.285631
 C         3.187207        -0.817527         1.458463
 O         1.912440        -1.382248         0.905762
 H         0.315972         1.035685         0.879444
 H        -0.277674         0.592707        -0.762997
 H        -0.450983        -0.594600         0.638317
 H         2.007006        -2.215921        -1.362139
 H         0.792101        -0.856543        -2.110745
 H         2.598272         0.977626        -1.573034
 H         4.865943         0.425241         0.511279
 H         4.201153        -2.663315         0.779072
 H         5.165242        -1.445296         2.071558
 H         3.140011        -0.397020         2.553383
