19
Iteration:  3952
 C         0.348912         0.450130         0.224470
 C         1.410458        -0.550881        -0.180036
 C         1.673985        -1.349814        -1.504832
 C         2.580275        -0.214222        -1.278992
 O         3.911555        -0.411495        -0.831647
 C         4.176201        -0.337727         0.534955
 C         4.410251        -1.688680         1.246012
 C         3.090361        -0.930297         1.434380
 O         1.936993        -1.395617         0.857765
 H        -0.090622         1.005471        -0.598323
 H        -0.307526        -0.164544         1.007518
 H         0.976532         1.178506         0.765661
 H         2.189014        -2.295279        -1.179942
 H         1.147309        -1.439738        -2.472051
 H         2.408561         0.795733        -1.738181
 H         4.782765         0.637389         0.774213
 H         4.431662        -2.447975         0.569290
 H         5.087216        -1.805524         2.050096
 H         2.945410        -0.517123         2.409444
