19
Iteration:   857charge 0 multiplicity 1
 C         0.362035         0.214726         0.259842
 C         1.479181        -0.669461        -0.210114
 C         1.550432        -1.097826        -1.620399
 C         2.600793        -0.147991        -1.118481
 O         3.871393        -0.736944        -0.883449
 C         4.133287        -0.320990         0.415071
 C         4.481596        -1.427377         1.430559
 C         3.074018        -0.794240         1.490396
 O         2.044509        -1.447022         0.753124
 H         0.507895         0.495414         1.430103
 H         0.333076         1.110735        -0.365393
 H        -0.571583        -0.295294         0.016159
 H         1.650894        -2.171436        -1.710369
 H         0.855858        -0.536923        -2.208354
 H         2.611286         0.892199        -1.424524
 H         4.690094         0.678183         0.573343
 H         4.488602        -2.452513         1.098837
 H         5.085347        -1.135506         2.270119
 H         2.958162        -0.164219         2.354424
