19
Iteration:  4040
 C         0.240726         0.246652         0.296317
 C         1.505577        -0.558964        -0.251564
 C         1.602279        -1.081681        -1.698214
 C         2.584051        -0.127699        -1.185001
 O         3.862581        -0.675201        -0.886518
 C         4.278699        -0.478274         0.434207
 C         4.423648        -1.537217         1.481352
 C         3.149379        -0.803038         1.385987
 O         1.995334        -1.390533         0.884701
 H         0.000758         1.101209        -0.337132
 H        -0.699266        -0.459396         0.487304
 H         0.420845         0.552792         1.354846
 H         2.037167        -2.044176        -1.679634
 H         0.718676        -0.676397        -2.208358
 H         2.808513         0.910857        -1.569027
 H         4.801943         0.509448         0.530068
 H         4.353969        -2.559186         1.206659
 H         5.104250        -1.477939         2.281392
 H         2.755659        -0.156712         2.118431
