19
Iteration:   786
 C         0.369715         0.304880         0.244409
 C         1.498727        -0.593828        -0.237451
 C         1.563640        -1.247550        -1.550656
 C         2.555427        -0.241358        -1.239518
 O         3.928584        -0.465864        -0.860223
 C         4.206120        -0.267540         0.524260
 C         4.403620        -1.577097         1.338040
 C         3.112999        -0.877924         1.467825
 O         2.013228        -1.443078         0.811429
 H         0.723783         0.926848         0.964950
 H        -0.038093         0.874906        -0.621541
 H        -0.472155        -0.322270         0.593759
 H         1.654148        -2.279775        -1.209261
 H         0.869811        -1.067603        -2.367579
 H         2.382390         0.770302        -1.664113
 H         4.578242         0.676727         0.789686
 H         4.214046        -2.452153         0.703701
 H         5.016385        -1.566857         2.251806
 H         2.925355        -0.439545         2.489965
