19
Iteration:  1848
 C         0.328188         0.300958        -0.005229
 C         1.467826        -0.596079        -0.221759
 C         1.582603        -1.390314        -1.455421
 C         2.564794        -0.164550        -1.187127
 O         3.925932        -0.229614        -0.805459
 C         4.231135        -0.416977         0.562337
 C         4.324007        -1.746913         1.122580
 C         3.192111        -0.899589         1.517403
 O         1.999296        -1.318476         1.013407
 H         0.426224         1.200628         0.571132
 H        -0.005023         0.628388        -0.989612
 H        -0.476248        -0.152625         0.613559
 H         2.078746        -2.331719        -1.498029
 H         0.717186        -1.152432        -2.098890
 H         2.293010         0.599841        -1.979409
 H         4.898538         0.385037         0.865315
 H         4.062271        -2.721361         0.597294
 H         5.226349        -1.811690         1.779485
 H         3.129466        -0.329496         2.546689
