19
Iteration:  4118
 C         0.500547         0.439385         0.180685
 C         1.510219        -0.657386        -0.199795
 C         1.593712        -1.273610        -1.616603
 C         2.522492        -0.095198        -1.185628
 O         3.879995        -0.485932        -0.889832
 C         4.132846        -0.309422         0.514886
 C         4.484868        -1.614048         1.284051
 C         3.128421        -0.980751         1.533241
 O         1.844718        -1.495491         0.903970
 H         0.046278         0.807032        -0.773836
 H        -0.352313        -0.047825         0.806204
 H         1.018471         1.325200         0.587319
 H         2.134385        -2.239939        -1.546376
 H         0.828045        -0.889388        -2.312248
 H         2.505883         0.989558        -1.457257
 H         4.531159         0.626739         0.766480
 H         4.726781        -2.584202         0.739500
 H         5.060735        -1.434033         2.222470
 H         2.859947        -0.393878         2.330006
