19
Iteration:  2556
 C         0.365329         0.368384         0.125412
 C         1.476003        -0.581629        -0.186613
 C         1.597682        -1.221483        -1.496491
 C         2.588013        -0.121088        -1.238667
 O         3.807400        -0.652759        -0.841364
 C         4.105636        -0.339198         0.491624
 C         4.503802        -1.480464         1.339836
 C         3.125985        -0.923180         1.430143
 O         2.037053        -1.458456         0.875349
 H         0.180796         0.161801         1.254700
 H         0.571263         1.461667         0.128286
 H        -0.477070         0.282462        -0.615622
 H         2.140889        -2.235096        -1.393158
 H         0.728945        -1.092925        -2.204945
 H         2.428418         0.939257        -1.602827
 H         4.611873         0.664698         0.502177
 H         4.512742        -2.537790         0.963047
 H         5.222049        -1.412249         2.233804
 H         2.857365        -0.304650         2.325063
