19
Iteration:   130charge 0 multiplicity 1
 C         0.336681         0.260873         0.185515
 C         1.419883        -0.583969        -0.195793
 C         1.611070        -1.264797        -1.590677
 C         2.561496        -0.208639        -1.241282
 O         3.828184        -0.496752        -0.824022
 C         4.145297        -0.391335         0.493724
 C         4.452388        -1.634819         1.304794
 C         3.190588        -0.768102         1.472048
 O         2.065696        -1.339153         0.911866
 H         0.683068         1.132501         0.636083
 H        -0.206198         0.650034        -0.872716
 H        -0.372005        -0.184470         0.813069
 H         1.909555        -2.285641        -1.580874
 H         0.937380        -1.093310        -2.431610
 H         2.418333         0.762613        -1.675173
 H         4.717014         0.378797         0.873780
 H         4.155531        -2.588275         0.966683
 H         5.245243        -1.598025         2.046932
 H         3.041551        -0.136102         2.399281
