19
Iteration:  1688charge 0 multiplicity 1
 C         0.459017         0.402201         0.347707
 C         1.493556        -0.678996        -0.277663
 C         1.586426        -1.167184        -1.744760
 C         2.526124        -0.233605        -1.225493
 O         3.851114        -0.677607        -0.767498
 C         4.078697        -0.241117         0.602585
 C         4.445799        -1.510882         1.408821
 C         3.084375        -0.861102         1.449813
 O         2.045957        -1.480088         0.717024
 H         0.736083         0.935716         1.306027
 H         0.113554         1.014695        -0.440363
 H        -0.356859        -0.160025         0.834751
 H         1.664549        -2.302582        -1.881647
 H         0.857790        -0.581865        -2.466990
 H         2.616595         0.755189        -1.687692
 H         4.522159         0.685148         0.731987
 H         4.841016        -2.243097         0.643609
 H         5.111888        -1.186894         2.285856
 H         2.889340        -0.346341         2.464484
