19
Iteration:  3056charge 0 multiplicity 1
 C         0.416702         0.373177         0.320188
 C         1.451691        -0.613731        -0.262838
 C         1.567555        -1.316932        -1.607274
 C         2.575269        -0.174207        -1.163804
 O         3.885113        -0.629441        -0.835222
 C         4.146764        -0.265071         0.503405
 C         4.406256        -1.524569         1.353006
 C         3.123070        -0.824687         1.384914
 O         1.991650        -1.453022         0.820039
 H         0.942457         0.960153         1.082003
 H        -0.006535         0.997648        -0.476605
 H        -0.467508        -0.003210         0.814605
 H         2.088867        -2.375487        -1.660973
 H         0.850498        -0.934789        -2.454360
 H         2.536335         0.818952        -1.770830
 H         4.558899         0.677764         0.822109
 H         4.696487        -2.407332         0.770665
 H         5.129108        -1.409419         2.140915
 H         2.831215        -0.289137         2.360432
