19
Iteration:  4261
 C         0.284137         0.353687         0.200810
 C         1.499889        -0.463579        -0.168827
 C         1.545809        -1.177983        -1.558825
 C         2.595358        -0.133474        -1.219523
 O         3.962852        -0.617926        -0.841507
 C         4.081272        -0.382632         0.529818
 C         4.531354        -1.586196         1.347542
 C         3.110385        -0.931389         1.435335
 O         1.961570        -1.457127         0.821267
 H        -0.277075         0.819361        -0.706455
 H        -0.507417        -0.348844         0.713068
 H         0.626224         1.221515         0.846344
 H         2.092991        -2.090428        -1.546315
 H         0.877735        -0.845001        -2.376863
 H         2.639941         0.802999        -1.707547
 H         4.435361         0.563341         0.645216
 H         4.723069        -2.571043         0.827912
 H         5.274220        -1.391372         2.205580
 H         2.984197        -0.534388         2.345742
