19
Iteration:  3504charge 0 multiplicity 1
 C         0.284918         0.320241         0.218663
 C         1.463379        -0.654666        -0.233041
 C         1.625271        -1.134473        -1.655851
 C         2.563334        -0.075782        -1.102870
 O         3.808977        -0.683839        -0.858801
 C         4.236566        -0.405737         0.481105
 C         4.452312        -1.571882         1.384878
 C         3.150076        -0.774099         1.441353
 O         2.013062        -1.437832         0.841701
 H         0.327250         1.095193        -0.426951
 H        -0.713625        -0.205681         0.309340
 H         0.555141         0.745812         1.178834
 H         1.994924        -2.125784        -1.835139
 H         0.908589        -0.899529        -2.397468
 H         2.579555         0.967300        -1.301183
 H         4.727853         0.578760         0.522353
 H         4.430909        -2.574663         0.865814
 H         5.127399        -1.331728         2.240175
 H         3.035313        -0.183458         2.423507
