19
Iteration:  1787
 C         0.229908         0.195634         0.089339
 C         1.523330        -0.519967        -0.218463
 C         1.729648        -1.263598        -1.447976
 C         2.571295        -0.101476        -1.154749
 O         3.967465        -0.438216        -0.959812
 C         4.221710        -0.370278         0.503589
 C         4.368909        -1.776485         1.179187
 C         3.147281        -0.940342         1.520579
 O         1.862527        -1.190308         1.065620
 H         0.279060         0.923135         0.969051
 H        -0.138720         0.699266        -0.820856
 H        -0.499955        -0.713923         0.211257
 H         2.194895        -2.271798        -1.309382
 H         0.949614        -1.238704        -2.305684
 H         2.538467         0.778554        -1.775842
 H         4.716070         0.554102         0.792312
 H         4.246109        -2.443622         0.303990
 H         5.190582        -2.006079         1.856827
 H         3.177599        -0.321531         2.454125
