19
Iteration:  2814
 C         0.361906         0.293335         0.131954
 C         1.495041        -0.632276        -0.210604
 C         1.473900        -1.217941        -1.573918
 C         2.536625        -0.181427        -1.196986
 O         3.862927        -0.627479        -0.882020
 C         4.183593        -0.383746         0.509323
 C         4.496548        -1.518514         1.352695
 C         3.129172        -0.829506         1.526150
 O         2.040459        -1.373653         0.884189
 H         0.133777         0.266849         1.163828
 H         0.744704         1.376850         0.138792
 H        -0.510608         0.195755        -0.529642
 H         1.950387        -2.203107        -1.713663
 H         0.540679        -0.963570        -2.268324
 H         2.560095         0.913638        -1.490503
 H         4.633258         0.609343         0.569103
 H         4.608105        -2.544208         0.819453
 H         5.188079        -1.376462         2.236976
 H         3.014127        -0.052687         2.295231
