19
Iteration:  2242
 C         0.525805         0.262143         0.393649
 C         1.535592        -0.650935        -0.270529
 C         1.596025        -1.186293        -1.668711
 C         2.557279        -0.092213        -1.201533
 O         3.874093        -0.635057        -0.967243
 C         4.142619        -0.329860         0.499139
 C         4.315586        -1.528494         1.529919
 C         3.034985        -0.786682         1.450982
 O         2.001660        -1.479209         0.731613
 H         0.903612         1.069537         1.062764
 H        -0.112321         0.681514        -0.364144
 H        -0.141108        -0.296803         1.162324
 H         1.887139        -2.230531        -1.891269
 H         0.923238        -0.837437        -2.456745
 H         2.618816         0.948231        -1.431583
 H         4.862911         0.636670         0.688748
 H         4.423782        -2.534256         1.272359
 H         4.852754        -1.214076         2.396180
 H         2.711744        -0.084272         2.241959
