19
Iteration:  4912charge 0 multiplicity 1
 C         0.282197         0.201250         0.124022
 C         1.546425        -0.505424        -0.179676
 C         1.588120        -1.137450        -1.617820
 C         2.589380        -0.016007        -1.131943
 O         3.856346        -0.700752        -0.923440
 C         4.246650        -0.454217         0.468441
 C         4.403116        -1.653990         1.409209
 C         3.120991        -0.813740         1.502082
 O         1.953865        -1.307057         0.879147
 H        -0.087912         0.862880        -0.598808
 H        -0.564072        -0.334217         0.445521
 H         0.418869         0.827343         1.014711
 H         2.126707        -2.076069        -1.721226
 H         0.705562        -0.950278        -2.207550
 H         2.720676         0.935906        -1.581445
 H         5.136594         0.320518         0.509807
 H         4.431981        -2.690193         1.138660
 H         5.143855        -1.425230         2.120630
 H         3.116607        -0.220622         2.413064
