19
Iteration:  3529charge 0 multiplicity 1
 C         0.390004         0.310486         0.297842
 C         1.508715        -0.622840        -0.190945
 C         1.525309        -1.110826        -1.553834
 C         2.587588        -0.153194        -1.191863
 O         3.944454        -0.572858        -0.923339
 C         4.192983        -0.407760         0.441708
 C         4.353868        -1.547746         1.485768
 C         3.063259        -0.800517         1.427704
 O         2.030868        -1.520770         0.761308
 H         0.084797         0.899744        -0.636584
 H        -0.325599        -0.441270         0.723639
 H         0.708502         1.154594         1.027634
 H         1.768312        -2.185383        -1.700368
 H         0.829509        -0.894449        -2.361980
 H         2.588485         0.938914        -1.406103
 H         4.696590         0.491924         0.562662
 H         4.202747        -2.570139         1.081579
 H         5.074611        -1.300428         2.257942
 H         2.748856        -0.043453         2.160954
