19
Iteration:  4176
 C         0.233835         0.276866         0.194117
 C         1.483789        -0.494431        -0.211910
 C         1.643636        -1.239492        -1.515871
 C         2.550646        -0.100011        -1.198323
 O         3.914214        -0.503507        -0.839174
 C         4.270966        -0.465839         0.467560
 C         4.405535        -1.728811         1.334810
 C         3.138907        -0.844297         1.452986
 O         1.995596        -1.315210         0.797966
 H         0.017468         1.153178        -0.428758
 H        -0.601098        -0.286675         0.309649
 H         0.478483         0.605915         1.221161
 H         1.970276        -2.288591        -1.479395
 H         0.784042        -1.291751        -2.194296
 H         2.416953         0.870854        -1.608901
 H         4.734356         0.436931         0.835408
 H         4.394587        -2.738521         0.867547
 H         4.991728        -1.510643         2.273501
 H         2.971733        -0.123118         2.295527
