19
Iteration:  3986charge 0 multiplicity 1
 C         0.367130         0.311579         0.123670
 C         1.499525        -0.576523        -0.203892
 C         1.497082        -1.188594        -1.546089
 C         2.535748        -0.205354        -1.238376
 O         3.958437        -0.537892        -0.870513
 C         4.164609        -0.330655         0.515883
 C         4.465637        -1.611494         1.311933
 C         3.160561        -0.905620         1.531514
 O         1.966560        -1.407167         0.907655
 H         0.081843         1.025773        -0.640631
 H        -0.691734         0.001116         0.337483
 H         0.572810         0.940209         0.987845
 H         1.814530        -2.225012        -1.694534
 H         0.749986        -0.901284        -2.386661
 H         2.498169         0.893201        -1.509853
 H         4.721993         0.584471         0.842323
 H         4.482890        -2.412338         0.614642
 H         5.150069        -1.637678         2.143589
 H         2.978057        -0.500166         2.495880
