19
Iteration:  3947charge 0 multiplicity 1
 C         0.335792         0.459750         0.249290
 C         1.420911        -0.599095        -0.200281
 C         1.685236        -1.335042        -1.504854
 C         2.582030        -0.216777        -1.269025
 O         3.913517        -0.404369        -0.881115
 C         4.174443        -0.324964         0.573864
 C         4.370555        -1.671333         1.247729
 C         3.102577        -0.941291         1.477475
 O         1.957910        -1.381595         0.842384
 H        -0.061655         0.875087        -0.707551
 H        -0.212097        -0.034298         0.953142
 H         0.976484         1.186031         0.771799
 H         2.217912        -2.164048        -1.128047
 H         1.046112        -1.471428        -2.403130
 H         2.431301         0.722605        -1.751426
 H         4.682896         0.558936         0.712944
 H         4.273996        -2.562479         0.477334
 H         5.171899        -1.901679         2.015623
 H         2.905483        -0.510944         2.505766
