19
Iteration:   577charge 0 multiplicity 1
 C         0.520474         0.328575         0.363106
 C         1.540690        -0.626522        -0.241488
 C         1.550941        -1.184331        -1.631398
 C         2.580468        -0.199892        -1.156767
 O         3.886792        -0.700590        -0.851233
 C         4.074005        -0.212578         0.472134
 C         4.437085        -1.406304         1.406814
 C         3.058743        -0.852473         1.433972
 O         1.990294        -1.528778         0.716555
 H         0.720719         1.186515         0.921561
 H        -0.308991         0.877498        -0.399460
 H        -0.120900        -0.352573         0.881702
 H         1.619768        -2.283255        -1.756213
 H         0.778264        -0.926896        -2.382089
 H         2.705985         0.814516        -1.548108
 H         4.658636         0.650992         0.809676
 H         4.439126        -2.319940         0.786354
 H         5.006606        -1.430324         2.376269
 H         2.760592        -0.143300         2.419719
