19
Iteration:  4268
 C         0.330319         0.370877         0.202455
 C         1.506559        -0.534623        -0.198619
 C         1.552375        -1.137490        -1.536421
 C         2.577308        -0.203150        -1.201710
 O         3.967690        -0.591168        -0.879525
 C         4.133399        -0.341199         0.556405
 C         4.534019        -1.606955         1.343358
 C         3.085940        -0.934759         1.462536
 O         1.927054        -1.459334         0.785313
 H        -0.167813         0.756148        -0.629766
 H        -0.339654        -0.248072         0.827601
 H         0.723665         1.108281         0.838649
 H         1.873760        -2.231747        -1.498008
 H         0.905602        -0.895775        -2.344324
 H         2.536423         0.814851        -1.675380
 H         4.445786         0.772615         0.780272
 H         4.530731        -2.366564         0.617870
 H         5.009352        -1.274163         2.249444
 H         2.967932        -0.415877         2.519608
