19
Iteration:  2905charge 0 multiplicity 1
 C         0.285393         0.233963         0.136633
 C         1.516605        -0.511197        -0.165426
 C         1.606952        -1.324116        -1.455318
 C         2.535501        -0.179857        -1.151685
 O         3.957045        -0.423966        -0.928491
 C         4.282051        -0.395319         0.479740
 C         4.325133        -1.703908         1.264795
 C         3.163004        -0.726538         1.453395
 O         1.965309        -1.373188         0.886200
 H         0.334435         0.764963         1.147379
 H         0.161115         1.158646        -0.369861
 H        -0.661548        -0.295906        -0.009127
 H         2.193593        -2.304518        -1.324429
 H         0.695673        -1.430649        -2.053222
 H         2.397776         0.817052        -1.527458
 H         5.078522         0.326274         0.700686
 H         3.990390        -2.564217         0.757007
 H         5.037329        -1.820653         2.043551
 H         2.883162        -0.035129         2.282183
