19
Iteration:  1913
 C         0.361888         0.254492         0.182581
 C         1.535191        -0.593256        -0.196699
 C         1.512685        -1.123721        -1.649808
 C         2.584932        -0.186219        -1.152805
 O         3.839496        -0.629230        -0.837766
 C         4.169600        -0.367088         0.531623
 C         4.466175        -1.530055         1.336722
 C         3.101474        -0.821289         1.488227
 O         2.046456        -1.403478         0.842351
 H         0.548200         0.968002         1.101263
 H         0.001808         0.803988        -0.739653
 H        -0.482353        -0.528794         0.342204
 H         1.861270        -2.152031        -1.711632
 H         0.753223        -0.792745        -2.366452
 H         2.747533         0.835656        -1.641190
 H         4.695109         0.589847         0.792140
 H         4.220113        -2.550531         0.901180
 H         5.300937        -1.538669         2.104019
 H         2.836207        -0.137720         2.386394
