19
Iteration:   177
 C         0.192033         0.256482         0.133415
 C         1.484349        -0.569203        -0.145127
 C         1.708107        -1.323464        -1.529910
 C         2.574824        -0.156492        -1.130150
 O         3.943875        -0.415826        -0.886105
 C         4.214742        -0.488965         0.428679
 C         4.449864        -1.686162         1.255403
 C         3.181179        -0.800671         1.471180
 O         1.889645        -1.261083         0.960487
 H         0.406148         1.368295         0.419004
 H        -0.528723         0.329481        -0.713931
 H        -0.304488        -0.185378         1.085669
 H         2.037834        -2.398448        -1.580840
 H         0.980182        -0.968101        -2.267214
 H         2.309906         0.547299        -1.910635
 H         4.905804         0.374502         0.751833
 H         4.296532        -2.638718         0.765064
 H         5.290537        -1.604242         1.906514
 H         3.048872        -0.193034         2.276375
