19
Iteration:  4608charge 0 multiplicity 1
 C         0.296716         0.355589         0.188325
 C         1.463502        -0.596137        -0.253307
 C         1.572200        -1.135666        -1.586102
 C         2.514420        -0.106003        -1.100888
 O         3.804600        -0.684721        -0.896476
 C         4.306239        -0.391590         0.451815
 C         4.466764        -1.579999         1.400678
 C         3.111097        -0.818077         1.483861
 O         2.046341        -1.436703         0.839302
 H         0.049998         0.849800        -0.811620
 H        -0.585501        -0.256861         0.620370
 H         0.724934         0.970934         0.997410
 H         2.057946        -2.134795        -1.514623
 H         0.876871        -0.885719        -2.383382
 H         2.677303         0.889505        -1.440248
 H         4.712321         0.567155         0.584809
 H         4.363006        -2.628825         1.006442
 H         5.207630        -1.530374         2.215786
 H         2.965296        -0.070636         2.342898
