19
Iteration:  3410
 C         0.377722         0.312617         0.201695
 C         1.554244        -0.637459        -0.194855
 C         1.649523        -1.353140        -1.578145
 C         2.486668        -0.105435        -1.248808
 O         3.933487        -0.318394        -0.898869
 C         4.148338        -0.399169         0.511389
 C         4.327698        -1.794414         1.276061
 C         3.096812        -0.812243         1.583684
 O         2.003214        -1.336094         0.934058
 H         0.005563         0.561758        -0.879416
 H        -0.224956        -0.234529         0.866074
 H         0.804946         1.302250         0.586208
 H         2.091685        -2.355717        -1.850026
 H         0.818304        -1.185274        -2.235421
 H         2.404765         0.840457        -1.857612
 H         4.773053         0.554101         0.743965
 H         3.870787        -2.637308         0.701236
 H         5.195202        -1.983357         1.943978
 H         3.020812        -0.339136         2.530272
