19
Iteration:   757
 C         0.304762         0.331937         0.158500
 C         1.483479        -0.652470        -0.282166
 C         1.651549        -1.324474        -1.576060
 C         2.495190        -0.122000        -1.234737
 O         3.894745        -0.391993        -0.806928
 C         4.235037        -0.411586         0.515646
 C         4.462955        -1.654667         1.272018
 C         3.147899        -0.860237         1.475509
 O         1.954008        -1.351300         0.924333
 H         0.779074         1.261572         0.679167
 H        -0.333605         0.489095        -0.644092
 H        -0.370766        -0.141599         1.004873
 H         2.175996        -2.305094        -1.427024
 H         0.753964        -1.247375        -2.284409
 H         2.305378         0.904018        -1.630528
 H         4.664030         0.504531         0.897143
 H         4.171279        -2.649039         0.853905
 H         5.276310        -1.694833         2.085650
 H         3.067849        -0.329323         2.358634
