19
Iteration:   364
 C         0.396244         0.336807         0.155568
 C         1.499839        -0.598993        -0.187600
 C         1.568108        -1.215984        -1.484382
 C         2.553907        -0.221112        -1.115407
 O         3.862889        -0.598877        -0.859917
 C         4.204810        -0.270387         0.503665
 C         4.427015        -1.500596         1.339883
 C         3.106879        -0.817983         1.452132
 O         1.999861        -1.489586         0.750498
 H         0.695788         1.382189         0.512269
 H        -0.272826         0.483519        -0.606195
 H        -0.111736        -0.264264         0.982373
 H         1.891315        -2.271017        -1.480265
 H         0.743485        -0.952901        -2.140406
 H         2.383281         0.807772        -1.481873
 H         4.920854         0.644065         0.581462
 H         4.332479        -2.429637         0.731111
 H         5.175864        -1.641928         2.130804
 H         2.795648        -0.315807         2.270815
