19
Iteration:  3670
 C         0.162367         0.197332         0.233009
 C         1.525380        -0.464949        -0.192229
 C         1.709975        -1.156992        -1.523990
 C         2.706571        -0.099491        -1.198164
 O         3.937822        -0.564160        -0.959748
 C         4.223281        -0.454362         0.455775
 C         4.383956        -1.732113         1.324024
 C         3.103864        -0.807671         1.455219
 O         1.914831        -1.307776         0.919732
 H        -0.084954         1.196433        -0.171387
 H        -0.648983        -0.553130         0.144971
 H         0.256261         0.585395         1.270328
 H         2.053044        -2.233532        -1.576889
 H         0.824465        -1.144434        -2.292272
 H         2.488608         0.933110        -1.654627
 H         4.880134         0.458015         0.600270
 H         4.047003        -2.640992         0.929506
 H         5.187969        -1.592451         2.038673
 H         3.012686        -0.262791         2.423186
