19
Iteration:  2994charge 0 multiplicity 1
 C         0.322327         0.335359         0.242527
 C         1.415597        -0.520779        -0.266935
 C         1.526772        -1.220025        -1.605227
 C         2.551748        -0.110936        -1.131555
 O         3.913886        -0.643274        -0.866773
 C         4.232164        -0.341148         0.524014
 C         4.484806        -1.527589         1.437660
 C         3.089096        -0.857819         1.472519
 O         1.994467        -1.507294         0.761771
 H         0.826265         1.387978         0.298161
 H        -0.458436         0.496277        -0.497887
 H         0.126428         0.026892         1.329162
 H         1.925081        -2.185114        -1.529531
 H         0.939750        -1.068031        -2.517615
 H         2.526871         0.697957        -1.817211
 H         4.894553         0.659081         0.499562
 H         4.366874        -2.562795         1.022756
 H         5.326442        -1.308735         2.132387
 H         2.956674        -0.255641         2.401233
