19
Iteration:   259
 C         0.281089         0.335710         0.237221
 C         1.515191        -0.674746        -0.237241
 C         1.572039        -1.303685        -1.504310
 C         2.584345        -0.196613        -1.274531
 O         3.854899        -0.526544        -0.920397
 C         4.221922        -0.389498         0.501330
 C         4.477206        -1.599315         1.410630
 C         3.154610        -0.786758         1.403717
 O         1.984475        -1.325775         0.887093
 H         0.440303         0.508486         1.288601
 H         0.198387         1.342804        -0.322885
 H        -0.671703        -0.101237         0.110190
 H         1.955741        -2.279706        -1.777028
 H         0.837495        -1.036148        -2.217069
 H         2.302260         0.799158        -1.599708
 H         4.665894         0.522073         0.674325
 H         4.578886        -2.552866         0.880742
 H         4.999112        -1.454911         2.337427
 H         3.027799        -0.161600         2.431173
