19
Iteration:  3111charge 0 multiplicity 1
 C         0.287677         0.283554         0.106842
 C         1.481085        -0.633005        -0.183951
 C         1.567030        -1.191717        -1.559682
 C         2.492019        -0.224128        -1.105459
 O         3.837420        -0.600496        -0.886764
 C         4.263814        -0.372324         0.467099
 C         4.485072        -1.570656         1.321088
 C         3.233010        -0.753628         1.450862
 O         2.010746        -1.375825         0.914664
 H         0.003844         0.483687         1.187160
 H         0.464386         1.227649        -0.436387
 H        -0.560577        -0.229993        -0.367208
 H         1.941766        -2.252033        -1.620543
 H         0.799473        -0.592771        -2.286638
 H         2.479018         0.887522        -1.263935
 H         4.720518         0.564963         0.778238
 H         4.188683        -2.472042         0.786849
 H         5.195861        -1.783883         2.174288
 H         2.922241        -0.101896         2.359255
