19
Iteration:   109charge 0 multiplicity 1
 C         0.312154         0.345648         0.180030
 C         1.460496        -0.608902        -0.210455
 C         1.531051        -1.292211        -1.616518
 C         2.514714        -0.156114        -1.154265
 O         3.914353        -0.586089        -0.920211
 C         4.333553        -0.323151         0.447792
 C         4.509828        -1.500541         1.389162
 C         3.147273        -0.914482         1.528575
 O         1.918843        -1.411763         0.905915
 H         0.597817         0.953619         1.013759
 H         0.026521         1.125428        -0.748129
 H        -0.577334        -0.213809         0.404843
 H         1.911992        -2.263975        -1.836986
 H         0.651432        -1.034599        -2.214707
 H         2.427856         0.787823        -1.637376
 H         4.667313         0.653819         0.630438
 H         4.651369        -2.442753         0.966610
 H         5.191564        -1.287358         2.198366
 H         2.851901        -0.350031         2.399443
