19
Iteration:   954
 C         0.261329         0.343363         0.008621
 C         1.485220        -0.567911        -0.147482
 C         1.666649        -1.335826        -1.426552
 C         2.592206        -0.195564        -1.159758
 O         3.880105        -0.350958        -0.871262
 C         4.219134        -0.294216         0.522587
 C         4.439224        -1.742669         1.163386
 C         3.187869        -0.883268         1.495442
 O         1.909623        -1.389186         0.972379
 H         0.379605         1.399791         0.283728
 H        -0.271023         0.326163        -0.878386
 H        -0.331851        -0.279045         0.652143
 H         1.951115        -2.366329        -1.258440
 H         0.898757        -1.169130        -2.152841
 H         2.414139         0.811267        -1.603129
 H         4.929095         0.519311         0.772035
 H         4.350054        -2.484585         0.389529
 H         5.121484        -1.872550         1.983136
 H         3.141879        -0.350339         2.444376
