19
Iteration:    55charge 0 multiplicity 1
 C         0.443174         0.287598         0.285916
 C         1.412311        -0.666925        -0.293631
 C         1.470701        -1.253721        -1.676825
 C         2.554208        -0.212146        -1.233275
 O         3.808851        -0.675520        -0.810995
 C         4.224250        -0.281550         0.490628
 C         4.470998        -1.479232         1.426640
 C         3.115876        -0.755584         1.524685
 O         2.061970        -1.386954         0.780340
 H         0.632602         0.302092         1.332900
 H         0.660443         1.350680        -0.101229
 H        -0.609104         0.098450         0.221176
 H         1.780365        -2.260942        -1.819273
 H         0.722806        -0.944009        -2.418510
 H         2.468450         0.764884        -1.635120
 H         4.981461         0.478820         0.516758
 H         4.702319        -2.425125         1.042766
 H         5.035329        -1.087410         2.270815
 H         2.829281        -0.374415         2.504505
