19
Iteration:  2492
 C         0.475447         0.330378         0.318597
 C         1.560364        -0.561166        -0.226319
 C         1.530165        -1.238459        -1.556197
 C         2.577582        -0.220340        -1.235185
 O         3.855063        -0.653410        -0.916650
 C         4.148816        -0.324003         0.483598
 C         4.390901        -1.441818         1.430454
 C         3.015764        -0.831866         1.460346
 O         2.069939        -1.448084         0.729224
 H         0.426555         0.226680         1.458059
 H         0.259015         1.310049        -0.061835
 H        -0.532936        -0.058230        -0.013793
 H         1.870470        -2.316153        -1.419016
 H         0.799774        -0.971612        -2.318164
 H         2.603306         0.842189        -1.522252
 H         4.826702         0.571816         0.876663
 H         4.324558        -2.491189         1.015757
 H         5.067203        -1.297526         2.324279
 H         2.609664        -0.178799         2.262376
