19
Iteration:  2388charge 0 multiplicity 1
 C         0.227928         0.262191         0.179129
 C         1.469398        -0.557144        -0.216954
 C         1.668684        -1.364825        -1.480027
 C         2.524746        -0.210460        -1.233413
 O         3.980898        -0.268245        -0.838272
 C         4.315254        -0.457187         0.506975
 C         4.335219        -1.788137         1.291472
 C         3.167262        -0.753793         1.471945
 O         1.940413        -1.308639         0.822954
 H         0.514786         1.192156         0.563536
 H        -0.455502         0.617054        -0.643056
 H        -0.204516        -0.277645         1.044612
 H         2.059474        -2.366916        -1.283575
 H         0.945660        -1.170055        -2.206809
 H         2.433587         0.734874        -1.814493
 H         4.840794         0.368883         0.790782
 H         4.174896        -2.732981         0.735703
 H         4.985899        -1.985648         2.167227
 H         2.905195        -0.133706         2.377108
