19
Iteration:  2142charge 0 multiplicity 1
 C         0.267785         0.198843         0.094366
 C         1.510315        -0.665291        -0.205649
 C         1.639487        -1.258441        -1.511980
 C         2.582399        -0.125435        -1.141014
 O         3.945749        -0.404530        -0.825151
 C         4.256883        -0.398141         0.464304
 C         4.272779        -1.733194         1.230998
 C         3.167945        -0.733369         1.502299
 O         1.965757        -1.335108         0.909629
 H         0.449301         0.665656         1.155322
 H         0.169650         1.071989        -0.577021
 H        -0.785534        -0.245781         0.071375
 H         1.968509        -2.287719        -1.602412
 H         0.877109        -0.946654        -2.269224
 H         2.528374         0.892484        -1.476514
 H         5.123865         0.470510         0.693218
 H         4.103619        -2.593342         0.602152
 H         4.798649        -1.764267         2.121943
 H         3.252204        -0.272391         2.450534
