19
Iteration:  4905
 C         0.272974         0.248089         0.089735
 C         1.523062        -0.521426        -0.225961
 C         1.568352        -1.104294        -1.588469
 C         2.575917        -0.063881        -1.092877
 O         3.850595        -0.718715        -0.892311
 C         4.203750        -0.438981         0.486365
 C         4.418970        -1.621981         1.355780
 C         3.163801        -0.785283         1.520643
 O         1.993357        -1.373233         0.869067
 H         0.032275         1.050174        -0.749955
 H        -0.508944        -0.468567         0.579993
 H         0.663822         0.980396         0.853274
 H         2.070715        -2.031923        -1.515934
 H         0.753479        -0.955749        -2.446666
 H         2.661702         0.985537        -1.443544
 H         4.937452         0.337070         0.571354
 H         4.363956        -2.679053         1.033042
 H         5.191319        -1.461546         2.185174
 H         3.043947        -0.264900         2.479246
