19
Iteration:  2815
 C         0.359384         0.304628         0.134427
 C         1.495413        -0.629159        -0.210629
 C         1.471989        -1.219774        -1.570326
 C         2.540818        -0.178640        -1.199927
 O         3.858788        -0.629140        -0.886622
 C         4.189243        -0.373028         0.507558
 C         4.495840        -1.519751         1.346792
 C         3.125940        -0.833295         1.531731
 O         2.042189        -1.382296         0.891581
 H         0.101624         0.248697         1.177438
 H         0.729700         1.375103         0.072506
 H        -0.459576         0.166420        -0.568867
 H         1.992904        -2.202881        -1.710808
 H         0.526796        -0.962199        -2.277557
 H         2.569750         0.912097        -1.491123
 H         4.601493         0.589475         0.603735
 H         4.610076        -2.532569         0.843205
 H         5.180060        -1.402349         2.213527
 H         3.026070        -0.056726         2.302875
