19
Iteration:  4535charge 0 multiplicity 1
 C         0.294791         0.327180         0.266230
 C         1.494666        -0.557234        -0.231563
 C         1.576987        -1.151425        -1.545673
 C         2.543686        -0.134285        -1.155639
 O         3.833244        -0.670517        -0.873843
 C         4.233224        -0.413679         0.460233
 C         4.418854        -1.545396         1.390149
 C         3.124994        -0.828732         1.461495
 O         2.046459        -1.431593         0.762651
 H         0.060332         1.055204        -0.538690
 H        -0.577598        -0.236065         0.609206
 H         0.637262         0.855462         1.094830
 H         2.009881        -2.188584        -1.481417
 H         1.004189        -0.771785        -2.478986
 H         2.657151         0.874201        -1.647127
 H         4.861697         0.466304         0.606792
 H         4.466437        -2.558691         0.968901
 H         5.032820        -1.370197         2.258953
 H         2.962210        -0.284633         2.357731
