19
Iteration:  3245charge 0 multiplicity 1
 C         0.395422         0.363562         0.240882
 C         1.447187        -0.586462        -0.228745
 C         1.513053        -1.218349        -1.613283
 C         2.601632        -0.228103        -1.126368
 O         3.903249        -0.583541        -0.826586
 C         4.166926        -0.278499         0.496948
 C         4.467269        -1.545211         1.311609
 C         3.109837        -0.867354         1.391734
 O         2.017712        -1.478901         0.852129
 H         0.643425         1.419402         0.306677
 H        -0.415243         0.131955        -0.236920
 H         0.082638         0.253630         1.274038
 H         1.627434        -2.291831        -1.796989
 H         0.918389        -0.878022        -2.363791
 H         2.520882         0.759284        -1.514220
 H         4.498192         0.825786         0.609219
 H         4.431422        -2.609312         0.854675
 H         5.114399        -1.398023         2.176092
 H         2.869667        -0.323966         2.325971
