19
Iteration:  1114charge 0 multiplicity 1
 C         0.489582         0.389541         0.312820
 C         1.448048        -0.640430        -0.232498
 C         1.509082        -1.223584        -1.713288
 C         2.566938        -0.206062        -1.201447
 O         3.840898        -0.604688        -0.865733
 C         4.158974        -0.293575         0.488250
 C         4.432098        -1.425777         1.478058
 C         3.060213        -0.908211         1.525304
 O         2.068217        -1.529943         0.737701
 H         1.090723         1.056801         0.817681
 H        -0.185971         0.960146        -0.339257
 H        -0.308461        -0.076740         0.972833
 H         1.934890        -2.219803        -1.819572
 H         0.883714        -0.755880        -2.472974
 H         2.560322         0.746345        -1.650256
 H         4.607017         0.613563         0.631241
 H         4.554815        -2.429760         1.053914
 H         5.066795        -1.167142         2.343941
 H         2.709009        -0.316175         2.337334
