19
Iteration:  4847charge 0 multiplicity 1
 C         0.576286         0.464378         0.318356
 C         1.568780        -0.520863        -0.254021
 C         1.568082        -1.322746        -1.592862
 C         2.570582        -0.219327        -1.259416
 O         3.893853        -0.492009        -0.856559
 C         4.034006        -0.375637         0.538051
 C         4.469122        -1.544521         1.397132
 C         3.040514        -0.942200         1.446571
 O         1.884935        -1.481673         0.773161
 H         0.141497         0.958448        -0.542244
 H        -0.223128        -0.021135         0.906929
 H         1.221541         1.100736         1.010325
 H         1.882940        -2.408520        -1.450255
 H         0.816035        -1.155743        -2.278289
 H         2.446300         0.603010        -1.891424
 H         4.404539         0.663418         0.947783
 H         4.527016        -2.435498         0.813320
 H         5.149147        -1.365017         2.173242
 H         2.680095        -0.262153         2.232384
