19
Iteration:  4766
 C         0.229718         0.252274         0.107703
 C         1.463572        -0.538033        -0.204598
 C         1.590704        -1.054833        -1.552285
 C         2.646272        -0.116199        -1.110127
 O         3.831987        -0.754007        -0.873729
 C         4.231577        -0.438332         0.468667
 C         4.560473        -1.606663         1.380882
 C         3.183514        -0.810895         1.403502
 O         1.931923        -1.343997         0.897120
 H        -0.312701         0.900555        -0.593606
 H        -0.543684        -0.436350         0.383958
 H         0.031172         0.847395         1.013845
 H         2.067412        -2.039537        -1.735843
 H         0.901715        -0.675091        -2.326790
 H         2.663512         0.964680        -1.497297
 H         4.795677         0.552952         0.733826
 H         4.529621        -2.670256         0.984888
 H         5.272040        -1.411390         2.208511
 H         2.942467        -0.148371         2.247582
