19
Iteration:  3388
 C         0.343790         0.269271         0.176853
 C         1.463059        -0.561884        -0.214589
 C         1.618511        -1.266584        -1.528644
 C         2.558311        -0.188204        -1.123327
 O         3.972585        -0.389522        -0.830631
 C         4.204442        -0.321613         0.486308
 C         4.375885        -1.733704         1.204399
 C         3.116306        -0.828887         1.423524
 O         1.914640        -1.385565         0.912325
 H        -0.351854         0.503146        -0.716498
 H        -0.079911        -0.157881         1.023215
 H         0.827323         1.276467         0.306070
 H         1.932006        -2.294332        -1.335202
 H         0.997022        -1.147988        -2.408612
 H         2.541703         0.796580        -1.635176
 H         4.999025         0.383333         0.898329
 H         4.232761        -2.684552         0.659812
 H         5.007485        -1.740574         2.142208
 H         2.971654        -0.375083         2.384276
