19
Iteration:  1727
 C         0.346081         0.275243         0.187484
 C         1.488761        -0.599159        -0.144790
 C         1.627277        -1.158865        -1.573123
 C         2.626035        -0.087486        -1.134141
 O         3.874056        -0.552293        -0.916257
 C         4.164345        -0.378320         0.464451
 C         4.393385        -1.640268         1.407704
 C         3.107433        -0.841395         1.390657
 O         2.000138        -1.424005         0.847483
 H         0.416189         1.073361         0.911649
 H        -0.045898         0.691513        -0.819923
 H        -0.454689        -0.522744         0.529165
 H         2.136728        -2.093933        -1.678366
 H         0.775275        -1.024985        -2.107377
 H         2.411624         0.937911        -1.479525
 H         4.842654         0.529339         0.687791
 H         4.554893        -2.623479         1.026029
 H         4.964213        -1.399501         2.291078
 H         2.813018        -0.213836         2.276299
