19
Iteration:   310charge 0 multiplicity 1
 C         0.409944         0.276724         0.324074
 C         1.488763        -0.620061        -0.247100
 C         1.534259        -1.140992        -1.590286
 C         2.589549        -0.185575        -1.159105
 O         3.909626        -0.715611        -0.843162
 C         4.131668        -0.300353         0.394167
 C         4.443729        -1.450233         1.431972
 C         3.090108        -0.810149         1.361058
 O         2.005228        -1.469217         0.823516
 H         0.756453         0.786307         1.333009
 H         0.295965         0.993302        -0.417402
 H        -0.621841        -0.222261         0.494946
 H         1.831546        -2.172155        -1.789148
 H         0.708391        -0.946021        -2.279225
 H         2.435229         0.807106        -1.603630
 H         4.633531         0.751805         0.480610
 H         4.692459        -2.508192         1.165364
 H         4.932946        -0.960705         2.296882
 H         2.882009        -0.244051         2.170135
