19
Iteration:   617charge 0 multiplicity 1
 C         0.397536         0.363042         0.212151
 C         1.495564        -0.585579        -0.219327
 C         1.558858        -1.250292        -1.656823
 C         2.493079        -0.190286        -1.159728
 O         3.840372        -0.554606        -0.853624
 C         4.218635        -0.344828         0.490352
 C         4.510171        -1.508297         1.415333
 C         3.124547        -0.900928         1.532036
 O         2.010985        -1.467815         0.782719
 H         0.742119         0.765361         1.256544
 H         0.234960         1.081585        -0.549401
 H        -0.579588        -0.163615         0.404232
 H         1.944046        -2.306091        -1.771908
 H         0.686919        -0.980516        -2.314253
 H         2.269825         0.758145        -1.638090
 H         4.690033         0.791207         0.515832
 H         4.428911        -2.506617         0.900956
 H         5.019805        -1.294485         2.375838
 H         2.802402        -0.215089         2.303184
