19
Iteration:  4311charge 0 multiplicity 1
 C         0.590108         0.410074         0.302101
 C         1.446333        -0.687544        -0.233300
 C         1.636174        -1.290973        -1.627707
 C         2.516070        -0.151698        -1.247444
 O         3.829646        -0.436512        -0.928712
 C         4.105505        -0.352154         0.568724
 C         4.357180        -1.601467         1.407239
 C         3.028053        -0.900707         1.529471
 O         2.055055        -1.475491         0.757844
 H         0.253625         1.010164        -0.479021
 H        -0.308173         0.052703         0.738908
 H         1.224298         1.006754         0.944693
 H         1.974953        -2.323798        -1.379034
 H         0.816015        -1.014548        -2.261292
 H         2.366885         0.922437        -1.583431
 H         4.762641         0.653668         0.643667
 H         4.123415        -2.500642         0.850888
 H         5.207459        -1.585462         2.103445
 H         2.706644        -0.169675         2.476922
