19
Iteration:  2903
 C         0.279598         0.237195         0.140245
 C         1.531937        -0.504651        -0.166084
 C         1.599317        -1.331605        -1.454480
 C         2.532526        -0.184340        -1.152344
 O         3.972986        -0.425499        -0.916403
 C         4.259559        -0.384343         0.465952
 C         4.338484        -1.707076         1.260302
 C         3.159177        -0.718905         1.456917
 O         1.957562        -1.365291         0.883206
 H         0.294156         0.658621         1.154440
 H         0.228497         1.167428        -0.372271
 H        -0.621797        -0.288709         0.028052
 H         2.190045        -2.348684        -1.342525
 H         0.664431        -1.432300        -2.099484
 H         2.408812         0.837104        -1.576011
 H         5.022661         0.239882         0.743376
 H         3.957162        -2.562695         0.783109
 H         5.112794        -1.831607         2.008454
 H         2.890942        -0.082043         2.313778
