19
Iteration:  1546
 C         0.214354         0.205559         0.042916
 C         1.522893        -0.597997        -0.248994
 C         1.667987        -1.255439        -1.606367
 C         2.564409        -0.087283        -1.166720
 O         3.807332        -0.415019        -0.814542
 C         4.294036        -0.440044         0.523740
 C         4.350187        -1.769316         1.199642
 C         3.241625        -0.793829         1.510889
 O         1.958163        -1.257018         1.066910
 H         0.333756         1.012031         0.918978
 H        -0.035498         0.697776        -0.817638
 H        -0.636260        -0.438997         0.479069
 H         2.229949        -2.233727        -1.667402
 H         0.827980        -1.257058        -2.345992
 H         2.577327         0.920308        -1.580749
 H         5.181731         0.162634         0.675842
 H         4.106953        -2.726755         0.648558
 H         5.255063        -1.722399         1.835559
 H         3.080888        -0.218465         2.481831
