19
Iteration:  2223charge 0 multiplicity 1
 C         0.504311         0.336284         0.293448
 C         1.510702        -0.629953        -0.251802
 C         1.488480        -1.109091        -1.706733
 C         2.615024        -0.204785        -1.233066
 O         3.886664        -0.605802        -0.817885
 C         4.089944        -0.354022         0.524724
 C         4.423488        -1.439663         1.475717
 C         3.005732        -0.852711         1.454402
 O         2.075220        -1.548807         0.759001
 H         0.974832         1.130548         0.808441
 H        -0.234260         0.806666        -0.400582
 H        -0.043697        -0.169171         1.180867
 H         1.712094        -2.158826        -1.891568
 H         0.635408        -0.785413        -2.333275
 H         2.600884         0.788847        -1.812222
 H         4.516263         0.602857         0.730968
 H         4.413408        -2.506559         1.100241
 H         5.293288        -1.328356         2.201463
 H         2.531775        -0.297467         2.390652
