19
Iteration:  3922
 C         0.430558         0.338312         0.123598
 C         1.564617        -0.585706        -0.169403
 C         1.578978        -1.316492        -1.536706
 C         2.545682        -0.183799        -1.199415
 O         3.885519        -0.354622        -0.807745
 C         4.167631        -0.396640         0.511105
 C         4.314213        -1.701414         1.223144
 C         3.098974        -0.821668         1.474097
 O         1.987504        -1.407103         0.920292
 H        -0.094804         0.574071        -0.794417
 H        -0.077772        -0.176441         0.898801
 H         0.923959         1.166113         0.609357
 H         2.004776        -2.371037        -1.582609
 H         0.816899        -0.982142        -2.403801
 H         2.390966         0.861391        -1.625631
 H         4.885294         0.412334         0.727266
 H         4.115336        -2.599808         0.655102
 H         5.171510        -1.813122         1.931979
 H         2.923984        -0.297717         2.390050
