19
Iteration:  2872charge 0 multiplicity 1
 C         0.261122         0.321140         0.142260
 C         1.502022        -0.522905        -0.217522
 C         1.610018        -1.356751        -1.584062
 C         2.518056        -0.259137        -1.267054
 O         3.891039        -0.447238        -0.864804
 C         4.256955        -0.308263         0.497332
 C         4.450049        -1.678383         1.290344
 C         3.207220        -0.868512         1.515966
 O         1.920447        -1.282136         0.976042
 H         0.287775         0.150341         1.279729
 H         0.518485         1.286941        -0.189935
 H        -0.760117         0.003407        -0.116130
 H         1.959526        -2.474401        -1.490017
 H         0.753467        -1.148071        -2.259966
 H         2.417643         0.668817        -1.811859
 H         4.943321         0.454387         0.727064
 H         4.478566        -2.456075         0.618722
 H         5.038587        -1.833961         2.161461
 H         3.151029        -0.326862         2.493541
