19
Iteration:  3914
 C         0.448024         0.299445         0.120225
 C         1.518480        -0.670184        -0.229034
 C         1.552624        -1.190561        -1.540499
 C         2.568204        -0.227529        -1.166722
 O         3.860811        -0.341609        -0.829613
 C         4.230819        -0.418467         0.514189
 C         4.349067        -1.705996         1.280037
 C         3.178462        -0.826026         1.441176
 O         1.946855        -1.377692         0.927505
 H        -0.243883         0.493399        -0.747501
 H        -0.344098        -0.096957         0.731812
 H         0.702881         1.248771         0.650559
 H         1.930492        -2.155030        -1.517901
 H         0.813424        -1.052351        -2.335738
 H         2.425087         0.735839        -1.603254
 H         4.841721         0.356604         0.787972
 H         4.110007        -2.682662         0.692818
 H         5.159020        -1.669619         2.103029
 H         2.974783        -0.220893         2.360913
