19
Iteration:  3215
 C         0.414443         0.406990         0.174919
 C         1.514598        -0.645211        -0.238999
 C         1.667177        -1.236171        -1.551170
 C         2.519400        -0.093434        -1.165704
 O         3.786184        -0.576248        -0.896118
 C         4.101192        -0.342461         0.465832
 C         4.562885        -1.578247         1.278524
 C         3.117926        -0.918328         1.526205
 O         1.941300        -1.451620         0.935765
 H         0.873404         1.452664         0.269378
 H        -0.477379         0.298280        -0.617009
 H        -0.174723         0.116231         1.057458
 H         2.209823        -2.143859        -1.735385
 H         0.822957        -1.117893        -2.233894
 H         2.442945         0.955553        -1.534267
 H         4.620361         0.723876         0.694636
 H         4.556769        -2.613765         0.809534
 H         5.279930        -1.248651         2.033230
 H         2.869176        -0.528894         2.466649
