19
Iteration:  3803
 C         0.407456         0.353557         0.271583
 C         1.539241        -0.637849        -0.172364
 C         1.549829        -1.209005        -1.555652
 C         2.569836        -0.020075        -1.159915
 O         3.913729        -0.593783        -0.908440
 C         4.172542        -0.364072         0.443691
 C         4.334478        -1.564627         1.420777
 C         3.053788        -0.826791         1.400406
 O         2.046805        -1.512626         0.749449
 H         0.381587         1.062280        -0.629316
 H        -0.509860        -0.120121         0.508483
 H         0.760699         0.858858         1.210539
 H         2.115213        -2.245885        -1.506711
 H         0.602530        -1.108773        -2.141439
 H         2.324549         1.022193        -1.486616
 H         4.812408         0.417419         0.681867
 H         4.367057        -2.624057         1.220150
 H         4.939965        -1.422464         2.319806
 H         2.752560        -0.343611         2.292920
