19
Iteration:  3037
 C         0.506011         0.346338         0.289395
 C         1.488253        -0.733293        -0.207963
 C         1.515652        -1.216622        -1.601861
 C         2.585981        -0.242032        -1.245830
 O         3.912040        -0.522351        -0.901253
 C         4.147967        -0.313464         0.531832
 C         4.359575        -1.484143         1.355669
 C         3.064755        -0.766581         1.497294
 O         2.001414        -1.503465         0.778803
 H         1.109251         1.175215         0.822673
 H        -0.093180         0.690552        -0.485044
 H         0.044090        -0.126377         1.208110
 H         1.896681        -2.202920        -1.449462
 H         0.762960        -0.826768        -2.333173
 H         2.609882         0.764649        -1.610979
 H         4.860120         0.640586         0.597148
 H         4.084316        -2.480534         0.977606
 H         5.030092        -1.593016         2.248875
 H         2.500955        -0.145457         2.271269
