19
Iteration:   712charge 0 multiplicity 1
 C         0.202588         0.186967         0.005098
 C         1.462989        -0.563399        -0.172427
 C         1.618723        -1.219952        -1.512690
 C         2.565627        -0.092292        -1.149976
 O         3.901096        -0.443426        -0.867971
 C         4.241822        -0.370184         0.526229
 C         4.490156        -1.778621         1.189790
 C         3.207727        -0.803100         1.510312
 O         1.932721        -1.303717         0.999703
 H         0.562839         1.128800         0.551260
 H        -0.350719         0.258508        -0.875968
 H        -0.469671        -0.368120         0.803007
 H         2.127479        -2.197971        -1.292129
 H         0.852864        -1.227236        -2.337727
 H         2.609177         0.903846        -1.656584
 H         4.894682         0.373112         0.762678
 H         4.074708        -2.566194         0.518345
 H         5.243403        -1.881350         2.017272
 H         3.077459        -0.200874         2.369900
