19
Iteration:    51
 C         0.474952         0.265671         0.285953
 C         1.415926        -0.642755        -0.285883
 C         1.479859        -1.259064        -1.664019
 C         2.540284        -0.207143        -1.210836
 O         3.819161        -0.662679        -0.825929
 C         4.211851        -0.280303         0.495837
 C         4.459286        -1.504600         1.457330
 C         3.116944        -0.730955         1.447314
 O         2.036099        -1.396143         0.781225
 H         0.639452         0.247277         1.369149
 H         0.655438         1.411660        -0.119575
 H        -0.586975        -0.019549         0.187788
 H         1.723763        -2.354867        -1.719375
 H         0.718191        -0.926684        -2.361539
 H         2.486911         0.827173        -1.669625
 H         4.990507         0.474295         0.623278
 H         4.792507        -2.514001         1.001523
 H         5.038796        -1.036852         2.282222
 H         2.902002        -0.292113         2.525372
