19
Iteration:   241
 C         0.287749         0.315087         0.142327
 C         1.458979        -0.568602        -0.147187
 C         1.628577        -1.276553        -1.591740
 C         2.482569        -0.178739        -1.132991
 O         3.963510        -0.545783        -0.931603
 C         4.204121        -0.350399         0.427810
 C         4.459427        -1.555251         1.284095
 C         3.180505        -0.848730         1.499404
 O         1.903867        -1.380480         0.987967
 H         0.374487         0.735466         1.112004
 H         0.266739         1.144391        -0.635818
 H        -0.644442        -0.263313         0.144711
 H         1.994390        -2.281026        -1.281280
 H         0.915514        -1.325432        -2.446193
 H         2.661579         0.701228        -1.731025
 H         4.824504         0.522827         0.722653
 H         4.302748        -2.529279         0.859948
 H         5.304398        -1.544341         1.935780
 H         3.134671        -0.208612         2.358187
