19
Iteration:   603
 C         0.421782         0.359165         0.304145
 C         1.472131        -0.639280        -0.227331
 C         1.546217        -1.204180        -1.635272
 C         2.577622        -0.181838        -1.245714
 O         3.876097        -0.629969        -0.868231
 C         4.086744        -0.273340         0.521773
 C         4.467873        -1.493224         1.411501
 C         3.082064        -0.848678         1.441177
 O         2.031809        -1.502386         0.798241
 H         0.761693         1.091283         1.117430
 H         0.094523         1.089723        -0.406560
 H        -0.568344        -0.208242         0.664713
 H         1.840723        -2.235758        -1.636718
 H         0.851062        -0.986745        -2.441194
 H         2.657058         0.844201        -1.653099
 H         4.648534         0.586481         0.787880
 H         4.775583        -2.432401         0.968025
 H         5.140761        -1.201242         2.219111
 H         2.855590        -0.490516         2.369748
