19
Iteration:   869
 C         0.331655         0.192276         0.275284
 C         1.557279        -0.528424        -0.169092
 C         1.492538        -1.121736        -1.614045
 C         2.621097        -0.162490        -1.141418
 O         3.903320        -0.689563        -0.850690
 C         4.192760        -0.326956         0.479198
 C         4.385613        -1.448111         1.375868
 C         3.122319        -0.781511         1.396394
 O         2.049214        -1.518428         0.804610
 H         0.148492         0.780082         1.330949
 H         0.245949         1.051777        -0.461531
 H        -0.539500        -0.422547         0.196818
 H         1.730246        -2.149938        -1.731140
 H         0.779503        -0.845021        -2.328967
 H         2.635536         0.738308        -1.690535
 H         4.717024         0.744715         0.515984
 H         4.429086        -2.442702         1.038769
 H         4.957487        -1.299737         2.226156
 H         2.663135        -0.141860         2.133065
