19
Iteration:  4953
 C         0.191911         0.231471         0.205027
 C         1.489064        -0.561696        -0.218908
 C         1.592954        -1.194500        -1.555108
 C         2.591652        -0.122300        -1.158851
 O         3.963192        -0.600418        -0.883779
 C         4.367268        -0.490478         0.473875
 C         4.240524        -1.675409         1.294805
 C         3.163068        -0.703991         1.534524
 O         2.013847        -1.245855         0.849164
 H         0.047758         0.987396        -0.568156
 H        -0.490905        -0.668167         0.170281
 H         0.129771         0.735185         1.210728
 H         2.006514        -2.248106        -1.640466
 H         0.788845        -0.943003        -2.135802
 H         2.594200         0.906422        -1.589658
 H         5.258924         0.152084         0.617630
 H         3.947991        -2.623849         0.850468
 H         5.078472        -1.813133         1.938151
 H         2.812659        -0.162557         2.514030
