19
Iteration:  3720
 C         0.373156         0.373282         0.080962
 C         1.470881        -0.619934        -0.141553
 C         1.603065        -1.158810        -1.521535
 C         2.540442        -0.070553        -1.115199
 O         3.852843        -0.543251        -0.833074
 C         4.206385        -0.391017         0.491187
 C         4.396307        -1.646988         1.258483
 C         3.104732        -0.879116         1.558662
 O         2.045965        -1.492512         0.824681
 H        -0.076404         0.767989        -0.855972
 H        -0.512014        -0.098446         0.610707
 H         0.718945         1.319787         0.523804
 H         1.981773        -2.110758        -1.612425
 H         0.969082        -1.062291        -2.385523
 H         2.422926         0.863398        -1.614824
 H         4.869193         0.557121         0.663776
 H         4.226719        -2.594047         0.669709
 H         5.241546        -1.524718         2.044917
 H         2.876817        -0.262746         2.482103
