19
Iteration:   921charge 0 multiplicity 1
 C         0.369673         0.311303         0.132164
 C         1.462357        -0.668225        -0.226989
 C         1.691871        -1.311458        -1.569294
 C         2.545503        -0.131461        -1.215057
 O         3.850547        -0.418230        -0.870883
 C         4.187536        -0.356952         0.517693
 C         4.413863        -1.659499         1.290297
 C         3.200101        -0.809135         1.498364
 O         1.917371        -1.388206         0.946867
 H         0.724480         1.236859         0.661169
 H        -0.328453         0.486962        -0.597010
 H        -0.190482        -0.179782         0.935661
 H         2.131923        -2.311978        -1.581614
 H         0.893225        -1.144953        -2.294980
 H         2.215865         0.880777        -1.531665
 H         4.810405         0.512083         0.710630
 H         4.276180        -2.503936         0.603821
 H         5.151751        -1.775081         2.088762
 H         3.014912        -0.217839         2.382680
