19
Iteration:  1396
 C         0.338035         0.178470         0.325127
 C         1.552890        -0.537429        -0.256888
 C         1.456008        -1.110726        -1.641062
 C         2.584788        -0.147804        -1.206897
 O         3.849028        -0.705747        -0.825021
 C         4.153416        -0.412231         0.509553
 C         4.426919        -1.513967         1.472440
 C         3.096211        -0.753243         1.421299
 O         2.147108        -1.416694         0.726158
 H         0.673537         0.798833         1.209807
 H        -0.061078         0.988439        -0.412608
 H        -0.428709        -0.534291         0.531108
 H         1.828768        -2.128138        -1.710050
 H         0.697577        -0.632131        -2.276271
 H         2.659638         0.753081        -1.744695
 H         4.667982         0.638972         0.684871
 H         4.353414        -2.577805         1.166728
 H         5.126859        -1.111477         2.219436
 H         2.688838        -0.110691         2.144271
