19
Iteration:  4741charge 0 multiplicity 1
 C         0.227709         0.196180         0.133482
 C         1.474301        -0.557475        -0.210104
 C         1.571887        -1.115881        -1.634453
 C         2.575716        -0.083540        -1.130625
 O         3.845735        -0.732666        -0.825779
 C         4.329205        -0.420721         0.478548
 C         4.394141        -1.636784         1.295922
 C         3.194119        -0.746910         1.535752
 O         2.042529        -1.266667         0.900228
 H        -0.234952         0.833774        -0.674358
 H        -0.629989        -0.486331         0.377053
 H         0.060440         0.901129         0.856608
 H         2.158543        -2.092690        -1.787679
 H         0.852233        -0.883168        -2.380887
 H         2.622652         0.961893        -1.382939
 H         4.915295         0.373369         0.596589
 H         4.213980        -2.479253         0.670090
 H         5.046076        -1.817038         2.130799
 H         3.022418        -0.368370         2.503897
