19
Iteration:  2298charge 0 multiplicity 1
 C         0.282858         0.236198         0.043571
 C         1.504116        -0.523196        -0.168483
 C         1.476012        -1.227404        -1.544762
 C         2.590716        -0.099427        -1.231947
 O         3.891808        -0.597251        -0.813814
 C         4.232764        -0.377046         0.521459
 C         4.490843        -1.608044         1.299433
 C         3.199643        -0.859328         1.535623
 O         1.966889        -1.358504         0.894617
 H         0.268279         0.638091         1.020916
 H         0.057919         1.121907        -0.596132
 H        -0.624888        -0.503234        -0.015839
 H         1.837283        -2.226958        -1.626954
 H         0.718985        -0.871868        -2.275028
 H         2.589235         0.945647        -1.628553
 H         4.630173         0.655508         0.819092
 H         4.581432        -2.573763         0.733275
 H         5.163805        -1.733545         2.183585
 H         3.156134        -0.090611         2.356319
