19
Iteration:  1807
 C         0.182856         0.300819        -0.008207
 C         1.448674        -0.589265        -0.134468
 C         1.756601        -1.345989        -1.399039
 C         2.579698        -0.083963        -1.206654
 O         3.946577        -0.385890        -0.804305
 C         4.250484        -0.416742         0.485403
 C         4.428405        -1.749672         1.040362
 C         3.195388        -0.919967         1.432333
 O         1.841968        -1.213791         1.066937
 H         0.394654         0.979879         0.786225
 H        -0.019888         0.770090        -0.914562
 H        -0.693550        -0.391744         0.528353
 H         2.296549        -2.323389        -1.431506
 H         0.978908        -1.400825        -2.284074
 H         2.355995         0.904750        -1.695301
 H         4.812771         0.287438         0.964421
 H         4.309448        -2.763295         0.557281
 H         5.098794        -1.680884         1.927258
 H         3.181842        -0.543653         2.567758
