19
Iteration:  2819charge 0 multiplicity 1
 C         0.355282         0.360818         0.145485
 C         1.500953        -0.612094        -0.202985
 C         1.465903        -1.232608        -1.566400
 C         2.558005        -0.159236        -1.206725
 O         3.841248        -0.639009        -0.903519
 C         4.201731        -0.334925         0.487843
 C         4.490692        -1.528312         1.327737
 C         3.127655        -0.845411         1.542446
 O         2.040378        -1.425516         0.922904
 H        -0.070168         0.144781         1.205986
 H         0.637556         1.343136        -0.219123
 H        -0.301264         0.045729        -0.708100
 H         2.086220        -2.137346        -1.695627
 H         0.662967        -1.010070        -2.195350
 H         2.570181         0.854343        -1.520297
 H         4.565970         0.670393         0.782451
 H         4.568246        -2.472167         0.939554
 H         5.176231        -1.492098         2.123387
 H         3.032811        -0.127806         2.368732
