19
Iteration:   526
 C         0.368605         0.255666         0.209875
 C         1.494152        -0.574819        -0.186893
 C         1.547277        -1.170819        -1.561305
 C         2.526267        -0.183998        -1.193179
 O         3.897993        -0.555323        -0.897993
 C         4.232824        -0.383462         0.450583
 C         4.357943        -1.542145         1.410569
 C         3.111675        -0.796019         1.481599
 O         2.051072        -1.477124         0.812102
 H         0.684340         1.123607         0.862503
 H        -0.051555         0.701490        -0.658801
 H        -0.516502        -0.224516         0.759633
 H         2.020012        -2.132914        -1.645838
 H         0.799887        -1.093742        -2.329136
 H         2.555488         0.868227        -1.556997
 H         4.694449         0.544941         0.748924
 H         4.448853        -2.523085         0.962033
 H         4.911721        -1.258435         2.313250
 H         3.044148        -0.173575         2.297970
