19
Iteration:  2535
 C         0.430719         0.379200         0.303181
 C         1.453078        -0.646188        -0.210205
 C         1.538934        -1.325923        -1.652437
 C         2.521791        -0.220992        -1.134585
 O         3.892360        -0.564977        -0.883763
 C         4.205370        -0.349696         0.491483
 C         4.414262        -1.496200         1.428969
 C         3.108197        -0.747625         1.453252
 O         1.995291        -1.484419         0.758848
 H         0.286330         0.387078         1.439475
 H         0.691539         1.415689         0.059895
 H        -0.478842         0.395038        -0.337573
 H         1.986068        -2.369118        -1.607756
 H         0.890293        -0.926453        -2.450718
 H         2.417697         0.779979        -1.664885
 H         4.824468         0.644080         0.579803
 H         4.577303        -2.473467         0.912654
 H         5.192434        -1.400054         2.259011
 H         2.777892        -0.210815         2.367884
