19
Iteration:  3912charge 0 multiplicity 1
 C         0.436007         0.291211         0.129351
 C         1.491130        -0.678128        -0.225186
 C         1.554462        -1.180636        -1.550270
 C         2.572185        -0.219248        -1.154868
 O         3.869794        -0.347519        -0.845457
 C         4.244249        -0.421018         0.511478
 C         4.364455        -1.713492         1.294137
 C         3.187370        -0.826674         1.448224
 O         1.939372        -1.370349         0.923555
 H        -0.223190         0.530367        -0.722044
 H        -0.339741        -0.080720         0.643722
 H         0.644262         1.248673         0.595966
 H         1.938067        -2.231074        -1.522432
 H         0.727329        -1.030248        -2.383361
 H         2.390798         0.779722        -1.634637
 H         4.858333         0.379405         0.842438
 H         4.137985        -2.654866         0.753187
 H         5.143979        -1.670600         2.131758
 H         3.018004        -0.232992         2.333195
