19
Iteration:  4931charge 0 multiplicity 1
 C         0.182936         0.172813         0.190356
 C         1.516234        -0.529954        -0.225777
 C         1.611036        -1.096058        -1.621981
 C         2.615379        -0.128876        -1.220896
 O         3.911756        -0.599968        -0.905802
 C         4.256479        -0.546504         0.458269
 C         4.358521        -1.707118         1.435025
 C         3.201683        -0.732894         1.406951
 O         1.963185        -1.246736         0.966181
 H        -0.078533         1.041401        -0.449177
 H        -0.513521        -0.726703         0.363830
 H         0.305642         0.640755         1.199952
 H         1.946112        -2.199293        -1.701901
 H         1.029115        -0.684742        -2.355057
 H         2.606982         0.909874        -1.669345
 H         4.778587         0.389880         0.698646
 H         4.084805        -2.709352         1.084115
 H         5.034708        -1.773195         2.275825
 H         3.339926         0.056429         2.240587
