19
Iteration:  1602charge 0 multiplicity 1
 C         0.251205         0.239538         0.181990
 C         1.472089        -0.566208        -0.209285
 C         1.659880        -1.176450        -1.573482
 C         2.615245        -0.083999        -1.183643
 O         3.829587        -0.616385        -0.838372
 C         4.192915        -0.357203         0.516988
 C         4.413558        -1.615816         1.283623
 C         3.170040        -0.852185         1.534319
 O         2.022744        -1.345306         0.847115
 H         0.495791         1.077707         0.973117
 H        -0.215807         0.740991        -0.679058
 H        -0.529182        -0.434566         0.527410
 H         2.063150        -2.231239        -1.750277
 H         0.945360        -0.898068        -2.409117
 H         2.602099         0.772853        -1.838602
 H         4.774749         0.565111         0.835991
 H         4.285196        -2.587268         0.763821
 H         5.134376        -1.796344         2.128356
 H         2.947764        -0.300983         2.423517
