19
Iteration:  4944charge 0 multiplicity 1
 C         0.187879         0.166293         0.205051
 C         1.454334        -0.494512        -0.221357
 C         1.580261        -1.153361        -1.635688
 C         2.632808        -0.134033        -1.127906
 O         3.986398        -0.604496        -0.917531
 C         4.297814        -0.479617         0.449467
 C         4.306137        -1.744184         1.364005
 C         3.190231        -0.684677         1.506459
 O         1.995328        -1.241441         0.924062
 H        -0.136256         0.878954        -0.485586
 H        -0.658126        -0.514752         0.168153
 H         0.374897         0.565852         1.204210
 H         1.836412        -2.195899        -1.684595
 H         0.818868        -0.963370        -2.368981
 H         2.635976         0.811321        -1.633415
 H         5.262559         0.185191         0.646956
 H         3.902985        -2.625206         0.924031
 H         5.118661        -1.739715         2.016127
 H         2.788662         0.000212         2.348239
