19
Iteration:   142charge 0 multiplicity 1
 C         0.335147         0.253064         0.179805
 C         1.563050        -0.611527        -0.208835
 C         1.620527        -1.333332        -1.500623
 C         2.516984        -0.119074        -1.163398
 O         3.863365        -0.502487        -0.862907
 C         4.251861        -0.364642         0.499118
 C         4.321731        -1.644095         1.256605
 C         3.136517        -0.757048         1.525431
 O         2.022087        -1.323668         0.844001
 H         0.614490         1.227025         0.555630
 H        -0.384553         0.384826        -0.785068
 H        -0.251459        -0.280543         0.925474
 H         2.112592        -2.305959        -1.494702
 H         0.798411        -1.099373        -2.152501
 H         2.467529         0.752566        -1.763695
 H         4.887606         0.490253         0.585550
 H         4.043605        -2.558112         0.783844
 H         5.138610        -1.726649         1.924133
 H         2.897867        -0.169101         2.387409
