19
Iteration:  2107
 C         0.078323         0.128024         0.048223
 C         1.465488        -0.475434        -0.176035
 C         1.713495        -1.225752        -1.481007
 C         2.614306        -0.045197        -1.212006
 O         3.918172        -0.389761        -0.876444
 C         4.212476        -0.554290         0.443702
 C         4.365352        -1.810679         1.279683
 C         3.248140        -0.833212         1.522520
 O         1.979490        -1.198486         0.953107
 H         0.177412         0.691888         1.064358
 H        -0.169790         0.898047        -0.784013
 H        -0.605887        -0.678107         0.209574
 H         2.259593        -2.169867        -1.354315
 H         0.922230        -1.203759        -2.233508
 H         2.576470         0.954999        -1.689983
 H         5.045176         0.309699         0.664075
 H         4.269793        -2.868310         0.910528
 H         5.107962        -1.794145         2.165098
 H         3.122704        -0.343411         2.439850
