19
Iteration:  3526charge 0 multiplicity 1
 C         0.387812         0.335638         0.277853
 C         1.488777        -0.611651        -0.160279
 C         1.550663        -1.104339        -1.580436
 C         2.566268        -0.158733        -1.175224
 O         3.935894        -0.587189        -0.927657
 C         4.202779        -0.388466         0.410358
 C         4.360068        -1.544858         1.495075
 C         3.066939        -0.820111         1.415916
 O         2.039021        -1.526597         0.782197
 H         0.093253         0.848518        -0.544524
 H        -0.353977        -0.415826         0.693018
 H         0.597785         1.055611         1.059933
 H         1.894284        -2.143173        -1.742228
 H         0.858008        -0.870287        -2.318905
 H         2.576075         0.857991        -1.450561
 H         4.786681         0.525123         0.636762
 H         4.176434        -2.585303         1.041564
 H         5.081566        -1.372618         2.331864
 H         2.654336        -0.005197         2.134042
