19
Iteration:  2969
 C         0.251845         0.277898         0.184149
 C         1.526332        -0.577037        -0.135904
 C         1.604793        -1.120823        -1.582967
 C         2.638025        -0.215928        -1.162426
 O         3.855729        -0.702145        -0.840947
 C         4.144963        -0.239658         0.539831
 C         4.468960        -1.595401         1.299306
 C         3.149513        -0.890191         1.416712
 O         1.974441        -1.353433         0.848443
 H         0.576627         1.345567         0.331322
 H        -0.352457         0.317455        -0.670897
 H        -0.133174        -0.029374         1.118381
 H         2.034634        -2.234100        -1.830314
 H         0.728500        -0.818732        -2.261945
 H         2.615077         0.791654        -1.650424
 H         4.655451         0.712664         0.563497
 H         4.506005        -2.529137         0.770307
 H         5.014939        -1.545662         2.199861
 H         3.096466        -0.221774         2.327534
