19
Iteration:  3970
 C         0.363855         0.418362         0.211820
 C         1.472342        -0.589979        -0.249727
 C         1.583736        -1.336505        -1.561222
 C         2.593570        -0.187186        -1.109690
 O         3.906888        -0.454059        -0.854837
 C         4.203602        -0.357416         0.571172
 C         4.482138        -1.618449         1.242279
 C         3.118818        -0.951823         1.411915
 O         1.872580        -1.349696         0.859231
 H         0.144373         0.925883        -0.758699
 H        -0.304541        -0.322463         0.605806
 H         0.759293         1.045807         1.039813
 H         1.847332        -2.357071        -1.379517
 H         0.855202        -1.002300        -2.235042
 H         2.473344         0.597246        -1.796503
 H         4.650860         0.602398         0.745773
 H         4.587174        -2.630467         0.728772
 H         5.165893        -1.549899         2.111348
 H         2.967221        -0.397540         2.387139
