19
Iteration:   714
 C         0.200635         0.182768        -0.000804
 C         1.468351        -0.560781        -0.153604
 C         1.625750        -1.217433        -1.508232
 C         2.582679        -0.098002        -1.147915
 O         3.897656        -0.440589        -0.867696
 C         4.241555        -0.385416         0.530117
 C         4.476804        -1.766801         1.170140
 C         3.205244        -0.803866         1.498563
 O         1.933939        -1.313635         1.000053
 H         0.611389         1.182619         0.525995
 H        -0.356448         0.269564        -0.868885
 H        -0.475438        -0.338513         0.814858
 H         2.113539        -2.219441        -1.340476
 H         0.802212        -1.286860        -2.293986
 H         2.628885         0.904209        -1.606665
 H         4.901581         0.485470         0.838047
 H         3.991394        -2.546264         0.548086
 H         5.227597        -1.802401         2.008093
 H         3.077088        -0.206834         2.321236
