19
Iteration:   804
 C         0.371019         0.319804         0.258777
 C         1.539775        -0.613351        -0.212324
 C         1.475168        -1.289260        -1.532172
 C         2.607363        -0.139066        -1.161260
 O         3.947334        -0.581032        -0.862391
 C         4.120373        -0.295345         0.531868
 C         4.439594        -1.495553         1.352050
 C         3.052574        -0.806341         1.412187
 O         2.011730        -1.527392         0.770260
 H         0.607214         0.717713         1.347544
 H         0.226024         1.134840        -0.574688
 H        -0.593795        -0.140455         0.348549
 H         2.078581        -2.135665        -1.734971
 H         0.691070        -0.982949        -2.166798
 H         2.565169         0.747430        -1.741293
 H         4.715900         0.729679         0.804167
 H         4.541300        -2.377686         0.764623
 H         5.164899        -1.487132         2.112507
 H         2.827538        -0.079180         2.241604
