19
Iteration:  3702charge 0 multiplicity 1
 C         0.292496         0.301469         0.130897
 C         1.515528        -0.613164        -0.237490
 C         1.542414        -1.186111        -1.617632
 C         2.532790        -0.130945        -1.128258
 O         3.850711        -0.494168        -0.858722
 C         4.278313        -0.391274         0.539830
 C         4.374648        -1.739504         1.382030
 C         3.208370        -0.805952         1.444921
 O         2.039425        -1.353228         0.873937
 H         0.072914         0.777120        -0.790301
 H        -0.622013        -0.249571         0.339510
 H         0.694760         0.933509         0.909624
 H         1.977512        -2.189143        -1.892262
 H         0.549124        -0.985448        -2.202107
 H         2.418938         0.972704        -1.401416
 H         4.927872         0.477769         0.921210
 H         4.126884        -2.586900         0.787235
 H         5.070998        -1.949209         2.205937
 H         3.048335        -0.281849         2.426468
