19
Iteration:  4475charge 0 multiplicity 1
 C         0.383812         0.465072         0.203881
 C         1.457654        -0.555666        -0.158204
 C         1.630408        -1.384571        -1.561753
 C         2.595449        -0.193460        -1.202773
 O         3.905841        -0.442030        -0.837476
 C         4.157367        -0.363068         0.520176
 C         4.502430        -1.598356         1.227273
 C         3.133029        -0.941985         1.416528
 O         1.864619        -1.418874         0.866307
 H        -0.105824         1.041091        -0.575593
 H        -0.431030        -0.036760         0.806854
 H         1.035963         1.166065         0.951248
 H         2.039908        -2.361597        -1.415469
 H         0.953301        -1.315855        -2.360337
 H         2.223477         0.729714        -1.477859
 H         4.579656         0.612841         0.910565
 H         4.463394        -2.449811         0.530953
 H         5.108981        -1.793233         2.109125
 H         2.919778        -0.380994         2.432524
