19
Iteration:  1549charge 0 multiplicity 1
 C         0.183044         0.187661         0.043701
 C         1.507220        -0.585154        -0.240512
 C         1.676691        -1.232980        -1.603356
 C         2.560099        -0.095819        -1.156335
 O         3.822350        -0.424349        -0.822404
 C         4.279965        -0.418339         0.500292
 C         4.360137        -1.793317         1.235334
 C         3.257121        -0.780319         1.492639
 O         1.961462        -1.251916         1.067459
 H         0.372279         0.964167         0.860033
 H        -0.109148         0.723491        -0.913663
 H        -0.621102        -0.316780         0.457620
 H         2.122207        -2.260449        -1.781671
 H         0.834056        -1.259844        -2.329185
 H         2.551655         0.915732        -1.502894
 H         5.267861         0.271652         0.719088
 H         4.210701        -2.774866         0.744958
 H         5.278382        -1.857530         1.889050
 H         3.096214        -0.382420         2.402349
