19
Iteration:  1351
 C         0.392227         0.277930         0.234124
 C         1.465326        -0.632495        -0.221773
 C         1.560894        -1.266799        -1.658797
 C         2.542246        -0.119939        -1.159059
 O         3.856430        -0.524829        -0.842622
 C         4.164127        -0.372843         0.472585
 C         4.529875        -1.579528         1.342726
 C         3.182138        -0.860483         1.461126
 O         1.915306        -1.374667         0.877336
 H         0.684221         0.968613         1.129012
 H         0.279192         0.918026        -0.671012
 H        -0.446808        -0.329366         0.364861
 H         2.038937        -2.246385        -1.618647
 H         0.868761        -0.919071        -2.405560
 H         2.426669         0.849169        -1.582102
 H         4.665424         0.682283         0.715427
 H         4.419610        -2.600933         1.003510
 H         5.063587        -1.369192         2.272962
 H         3.045605        -0.342109         2.302711
