19
Iteration:  4252charge 0 multiplicity 1
 C         0.249986         0.344188         0.201377
 C         1.493363        -0.488556        -0.224456
 C         1.594492        -1.169837        -1.575627
 C         2.639141        -0.062368        -1.176046
 O         3.850737        -0.648680        -0.834224
 C         4.163546        -0.394155         0.482063
 C         4.512269        -1.557148         1.344395
 C         3.139868        -0.983092         1.463315
 O         1.988886        -1.418781         0.847082
 H        -0.150676         0.777716        -0.795927
 H        -0.520540        -0.327504         0.630321
 H         0.274623         1.201632         0.964418
 H         1.919408        -2.176179        -1.670384
 H         0.760994        -1.038609        -2.336273
 H         2.702283         0.874320        -1.693382
 H         4.673744         0.496984         0.788407
 H         4.720341        -2.609053         0.951698
 H         5.256593        -1.457992         2.167196
 H         2.857129        -0.361972         2.326647
