19
Iteration:   314
 C         0.428071         0.253992         0.325571
 C         1.519665        -0.627845        -0.276086
 C         1.490621        -1.162487        -1.609734
 C         2.566644        -0.156078        -1.133920
 O         3.879812        -0.712255        -0.855868
 C         4.184982        -0.324312         0.430136
 C         4.470205        -1.421220         1.426462
 C         3.062060        -0.829411         1.364111
 O         1.975430        -1.458902         0.834351
 H         0.800081         0.781480         1.176174
 H         0.283401         1.082439        -0.518491
 H        -0.474057        -0.231377         0.546939
 H         1.853090        -2.179024        -1.713342
 H         0.855432        -0.809643        -2.417221
 H         2.473731         0.803640        -1.612749
 H         4.567087         0.621576         0.474332
 H         4.850921        -2.401253         1.182178
 H         4.972133        -1.016145         2.281481
 H         2.903260        -0.145961         2.341797
