19
Iteration:  3394charge 0 multiplicity 1
 C         0.404023         0.276172         0.128763
 C         1.510308        -0.586028        -0.231106
 C         1.613076        -1.278729        -1.539603
 C         2.592985        -0.196967        -1.170910
 O         3.921633        -0.347292        -0.868557
 C         4.202252        -0.376615         0.517260
 C         4.314210        -1.687546         1.213578
 C         3.145176        -0.839440         1.490921
 O         1.923487        -1.382398         0.932693
 H        -0.442042         0.521436        -0.466474
 H        -0.167676        -0.260081         1.033600
 H         0.751166         1.269890         0.464723
 H         2.006490        -2.287828        -1.380522
 H         0.850567        -1.091949        -2.314949
 H         2.427956         0.798814        -1.552204
 H         4.955211         0.248861         0.974886
 H         4.143314        -2.584790         0.649594
 H         5.115581        -1.835414         1.944233
 H         2.892802        -0.254686         2.430407
