19
Iteration:  2568
 C         0.307847         0.336743         0.138215
 C         1.558907        -0.564817        -0.179838
 C         1.548711        -1.245593        -1.538461
 C         2.558569        -0.142672        -1.156906
 O         3.876931        -0.686836        -0.890232
 C         4.105088        -0.341556         0.500719
 C         4.556794        -1.541987         1.306230
 C         3.134600        -0.843041         1.546195
 O         1.954428        -1.389083         0.860487
 H        -0.404024         0.148215         1.003315
 H         0.612114         1.390438         0.049987
 H        -0.444613         0.121468        -0.681567
 H         2.006444        -2.228311        -1.682861
 H         0.710194        -1.017788        -2.239784
 H         2.692032         0.892478        -1.546972
 H         4.635614         0.678370         0.677065
 H         4.771438        -2.269509         0.516097
 H         5.303647        -1.387328         2.138170
 H         3.006156        -0.433668         2.570410
