19
Iteration:  1771
 C         0.217506         0.165729         0.081271
 C         1.530374        -0.540816        -0.150616
 C         1.617948        -1.296357        -1.559508
 C         2.576590        -0.131019        -1.155033
 O         3.917681        -0.432432        -0.808078
 C         4.259383        -0.418380         0.522587
 C         4.345033        -1.753807         1.188753
 C         3.208191        -0.810249         1.450496
 O         1.978201        -1.202908         0.952347
 H         0.346833         0.849247         0.891912
 H        -0.215474         0.796940        -0.722863
 H        -0.644413        -0.588160         0.299530
 H         2.047439        -2.279606        -1.598446
 H         0.913658        -1.009558        -2.288258
 H         2.443525         0.880102        -1.642710
 H         4.953940         0.456211         0.740433
 H         4.021868        -2.644567         0.661264
 H         4.993646        -1.938193         2.052232
 H         3.188376        -0.354881         2.487054
