19
Iteration:  2279
 C         0.267572         0.250446         0.259556
 C         1.484357        -0.582399        -0.191280
 C         1.563681        -1.186489        -1.636337
 C         2.617657        -0.158274        -1.163652
 O         3.885886        -0.613629        -0.896084
 C         4.226891        -0.327422         0.510139
 C         4.392584        -1.606575         1.420605
 C         3.115008        -0.792444         1.458172
 O         2.076877        -1.370011         0.801924
 H         0.453577         0.818588         1.149014
 H         0.035028         0.967767        -0.605956
 H        -0.620026        -0.435791         0.291179
 H         1.787628        -2.247844        -1.713236
 H         0.811191        -0.781543        -2.333779
 H         2.473904         0.825836        -1.737422
 H         4.945272         0.386791         0.617694
 H         4.270942        -2.696209         0.999886
 H         5.190352        -1.443060         2.237676
 H         2.679861        -0.247175         2.432129
