19
Iteration:  1895
 C         0.282947         0.274640         0.226239
 C         1.482479        -0.600630        -0.256970
 C         1.676429        -1.310255        -1.564438
 C         2.565090        -0.086870        -1.194805
 O         3.907400        -0.536123        -0.836063
 C         4.182223        -0.362179         0.504516
 C         4.399166        -1.661150         1.300017
 C         3.143281        -0.792110         1.470266
 O         1.947538        -1.341441         0.846631
 H         0.670660         0.864699         0.966047
 H        -0.110200         0.968147        -0.428842
 H        -0.503741        -0.236334         0.832423
 H         2.176406        -2.327215        -1.485886
 H         0.959897        -1.014773        -2.348850
 H         2.537907         0.881941        -1.687550
 H         4.794953         0.468325         0.626389
 H         4.412428        -2.531949         0.676928
 H         5.123899        -1.700608         2.108369
 H         2.916078        -0.295266         2.469859
