19
Iteration:  4837
 C         0.587815         0.487999         0.334641
 C         1.473965        -0.597668        -0.228199
 C         1.599490        -1.326405        -1.550714
 C         2.588724        -0.249668        -1.315614
 O         3.910300        -0.493917        -0.877342
 C         4.079835        -0.311041         0.517307
 C         4.359101        -1.541285         1.376186
 C         3.001559        -0.883993         1.467609
 O         1.960694        -1.519273         0.754250
 H         0.069282         1.235489        -0.274547
 H        -0.287919         0.160431         0.949383
 H         1.001356         1.161865         1.095294
 H         1.984066        -2.403602        -1.516483
 H         0.993136        -1.038113        -2.341582
 H         2.508310         0.668336        -1.789882
 H         4.653353         0.614827         0.701784
 H         4.513479        -2.478247         0.884797
 H         4.883083        -1.490226         2.276181
 H         2.895342        -0.589091         2.478661
