19
Iteration:  4373charge 0 multiplicity 1
 C         0.275491         0.224588         0.174517
 C         1.481764        -0.525400        -0.226370
 C         1.543615        -1.051049        -1.624484
 C         2.629229        -0.142842        -1.216442
 O         3.814100        -0.746012        -0.763610
 C         4.205585        -0.339132         0.512551
 C         4.489868        -1.573169         1.287434
 C         3.168699        -0.850974         1.479463
 O         2.056174        -1.361690         0.880621
 H        -0.015076         0.952859        -0.650726
 H        -0.526894        -0.515640         0.282120
 H         0.244529         0.876906         1.188186
 H         1.713356        -2.126525        -1.936721
 H         0.675385        -0.830600        -2.231347
 H         2.471134         0.946986        -1.431301
 H         4.841722         0.564642         0.672081
 H         4.486965        -2.521579         0.780111
 H         5.171737        -1.584826         2.149768
 H         2.925611        -0.375564         2.386777
