19
Iteration:  1242
 C         0.159014         0.153674         0.062927
 C         1.489854        -0.606289        -0.145704
 C         1.669849        -1.229936        -1.478523
 C         2.580373        -0.105558        -1.114857
 O         3.934105        -0.473409        -0.895461
 C         4.272712        -0.360432         0.475057
 C         4.320156        -1.728000         1.193323
 C         3.204547        -0.752235         1.473939
 O         1.999944        -1.303307         0.971828
 H         0.140773         1.025282         0.779719
 H        -0.056644         0.721477        -0.878460
 H        -0.630169        -0.373859         0.387843
 H         2.262982        -2.138418        -1.563288
 H         0.840870        -1.242770        -2.217432
 H         2.404185         0.931000        -1.354770
 H         5.141425         0.421187         0.710888
 H         3.845255        -2.601403         0.726898
 H         5.090544        -1.937875         1.932768
 H         3.101674        -0.253338         2.382680
