19
Iteration:  3915charge 0 multiplicity 1
 C         0.452130         0.305434         0.114567
 C         1.530435        -0.662952        -0.227025
 C         1.551225        -1.199158        -1.539162
 C         2.565078        -0.228083        -1.172590
 O         3.859241        -0.340157        -0.822611
 C         4.221879        -0.418845         0.514148
 C         4.343346        -1.704237         1.273455
 C         3.171516        -0.825513         1.439815
 O         1.951447        -1.381624         0.928972
 H        -0.240010         0.482461        -0.760906
 H        -0.356511        -0.123934         0.796908
 H         0.737967         1.244614         0.671081
 H         1.933482        -2.144999        -1.520456
 H         0.862126        -1.059279        -2.303735
 H         2.436791         0.725772        -1.590145
 H         4.856725         0.374383         0.769822
 H         4.105196        -2.675706         0.679146
 H         5.149093        -1.676638         2.069324
 H         2.956621        -0.221243         2.369831
