19
Iteration:  1247charge 0 multiplicity 1
 C         0.178759         0.175456         0.071282
 C         1.532160        -0.570715        -0.154721
 C         1.672158        -1.310212        -1.508256
 C         2.566780        -0.078296        -1.122302
 O         3.911680        -0.445754        -0.869283
 C         4.263338        -0.361011         0.466337
 C         4.278178        -1.712105         1.189888
 C         3.248717        -0.805493         1.461233
 O         1.996212        -1.280710         0.995098
 H         0.400188         0.881260         0.878020
 H        -0.211164         0.661977        -0.884179
 H        -0.807023        -0.483719         0.470077
 H         2.259382        -2.219561        -1.669671
 H         0.932376        -1.209985        -2.283107
 H         2.557805         0.995881        -1.436602
 H         5.035144         0.292284         0.581236
 H         3.914361        -2.626956         0.729473
 H         4.964354        -1.850047         2.029954
 H         2.991322        -0.287142         2.453894
