19
Iteration:  2891
 C         0.284175         0.286369         0.190720
 C         1.503308        -0.591603        -0.188240
 C         1.576095        -1.360368        -1.464952
 C         2.599022        -0.169889        -1.232895
 O         3.970559        -0.420766        -0.890245
 C         4.151042        -0.420530         0.492791
 C         4.369942        -1.679804         1.237144
 C         3.144522        -0.769866         1.486283
 O         1.991546        -1.270438         0.930295
 H         0.269244         0.301979         1.234598
 H         0.242357         1.220422        -0.369030
 H        -0.515731        -0.296105        -0.179306
 H         1.931230        -2.450979        -1.357559
 H         0.948857        -1.045686        -2.372155
 H         2.473238         0.668177        -1.978136
 H         4.739962         0.387606         0.767576
 H         4.013082        -2.634441         0.867505
 H         5.330745        -1.746263         1.762856
 H         3.077616        -0.294264         2.455283
