19
Iteration:  1937
 C         0.324241         0.311540         0.180029
 C         1.439232        -0.671562        -0.204583
 C         1.527054        -1.036015        -1.581877
 C         2.574910        -0.131583        -1.176856
 O         3.860958        -0.756532        -0.908487
 C         4.221176        -0.312682         0.496750
 C         4.502490        -1.454953         1.519571
 C         3.124920        -0.856439         1.402629
 O         2.041183        -1.509005         0.789008
 H         0.646449         0.802253         1.107355
 H         0.150083         1.001856        -0.597989
 H        -0.709388        -0.334466         0.286309
 H         1.755028        -2.070299        -2.006988
 H         0.682581        -0.539475        -2.095149
 H         2.635432         0.978797        -1.325179
 H         4.614237         0.612867         0.622078
 H         4.692679        -2.491905         1.209088
 H         5.098749        -1.154365         2.418186
 H         2.872799        -0.179701         2.378069
