19
Iteration:  1742charge 0 multiplicity 1
 C         0.202285         0.262603         0.110572
 C         1.495590        -0.589040        -0.177809
 C         1.621653        -1.215294        -1.582985
 C         2.484719        -0.062494        -1.133917
 O         3.896069        -0.481510        -0.891505
 C         4.257337        -0.468763         0.481563
 C         4.399740        -1.674444         1.396926
 C         3.213897        -0.809458         1.486455
 O         2.046894        -1.392557         0.863529
 H         0.528311         1.015576         0.822249
 H        -0.210280         0.836990        -0.676286
 H        -0.739077        -0.328686         0.417474
 H         2.133460        -2.211107        -1.624949
 H         0.942007        -0.974895        -2.507212
 H         2.513423         0.961092        -1.545823
 H         4.794051         0.381452         0.670476
 H         4.011242        -2.677403         1.043076
 H         5.201332        -1.663644         2.192897
 H         3.078554        -0.099435         2.405119
