19
Iteration:  3108
 C         0.301259         0.291139         0.106040
 C         1.475697        -0.614741        -0.181953
 C         1.537154        -1.178529        -1.557795
 C         2.502097        -0.235431        -1.101976
 O         3.853478        -0.602065        -0.865481
 C         4.250407        -0.370000         0.452518
 C         4.500657        -1.531899         1.320350
 C         3.227225        -0.791661         1.462507
 O         2.021335        -1.381713         0.912086
 H        -0.053783         0.415783         1.096227
 H         0.415940         1.281339        -0.568476
 H        -0.578409        -0.203041        -0.333159
 H         1.943035        -2.244312        -1.681911
 H         0.774562        -0.653080        -2.179575
 H         2.451315         0.867882        -1.329200
 H         4.666217         0.532768         0.710894
 H         4.279121        -2.493482         0.836359
 H         5.060782        -1.866070         2.153252
 H         2.954713        -0.155024         2.275291
