19
Iteration:   706
 C         0.206603         0.193642         0.054900
 C         1.455947        -0.571937        -0.232177
 C         1.618556        -1.248503        -1.521968
 C         2.514707        -0.071856        -1.155244
 O         3.910727        -0.454408        -0.861133
 C         4.228279        -0.379966         0.501893
 C         4.490768        -1.774326         1.250566
 C         3.219733        -0.822548         1.530653
 O         1.939446        -1.260215         0.989964
 H         0.275847         1.170972         0.604450
 H        -0.356278         0.353059        -0.928211
 H        -0.394773        -0.453815         0.648023
 H         2.149956        -2.161749        -1.334375
 H         1.025942        -1.027405        -2.401883
 H         2.398901         0.823964        -1.746028
 H         5.125462         0.413987         0.653863
 H         4.421428        -2.607906         0.546323
 H         5.250581        -2.116964         1.952239
 H         3.121375        -0.271813         2.526957
