19
Iteration:  4442
 C         0.342075         0.278069         0.215785
 C         1.552303        -0.520875        -0.206444
 C         1.531993        -1.326148        -1.553466
 C         2.537303        -0.173941        -1.256505
 O         3.921826        -0.426332        -0.838368
 C         4.223292        -0.405439         0.545495
 C         4.328969        -1.686803         1.276490
 C         3.153075        -0.805432         1.485583
 O         2.034606        -1.334407         0.832773
 H        -0.170003         0.825024        -0.545790
 H        -0.337300        -0.418901         0.746946
 H         0.534984         1.068955         1.044441
 H         1.783097        -2.328385        -1.490250
 H         0.781594        -1.229343        -2.320182
 H         2.525762         0.818613        -1.675127
 H         4.985777         0.411558         0.729423
 H         4.013385        -2.575051         0.691116
 H         5.063983        -1.857222         2.033866
 H         2.931942        -0.277077         2.507498
