19
Iteration:  4941
 C         0.198468         0.143956         0.188050
 C         1.468147        -0.487327        -0.210553
 C         1.571246        -1.133490        -1.650632
 C         2.638470        -0.139165        -1.138763
 O         3.974891        -0.600796        -0.922797
 C         4.276600        -0.483367         0.458478
 C         4.327827        -1.748345         1.389037
 C         3.193888        -0.686228         1.469846
 O         1.986219        -1.247561         0.943316
 H        -0.248724         0.968818        -0.463191
 H        -0.769937        -0.492009         0.259891
 H         0.411239         0.534965         1.216032
 H         1.862433        -2.256552        -1.642703
 H         0.927820        -0.861086        -2.435807
 H         2.649784         0.857597        -1.686775
 H         5.072374         0.186570         0.638468
 H         3.904018        -2.680654         0.971382
 H         5.143186        -1.777281         2.125270
 H         3.019645         0.078315         2.342445
