19
Iteration:  3356charge 0 multiplicity 1
 C         0.187141         0.368796         0.121137
 C         1.473212        -0.458022        -0.230090
 C         1.592984        -1.196768        -1.563502
 C         2.562248        -0.113996        -1.199699
 O         3.879354        -0.584117        -0.801860
 C         4.151014        -0.345462         0.544108
 C         4.565493        -1.657058         1.277563
 C         3.164653        -0.963858         1.529608
 O         1.992319        -1.429619         0.850692
 H        -0.457866         0.497249        -0.789641
 H        -0.270138        -0.125537         0.885173
 H         0.592073         1.246887         0.630227
 H         2.024106        -2.189000        -1.400592
 H         0.858609        -1.144653        -2.386881
 H         2.606858         0.892898        -1.701796
 H         4.852805         0.630303         0.627325
 H         4.580296        -2.596146         0.716811
 H         5.305172        -1.518243         2.123330
 H         3.036242        -0.507071         2.485454
