19
Iteration:  4849
 C         0.570022         0.467488         0.321510
 C         1.570945        -0.524225        -0.259431
 C         1.563174        -1.316128        -1.594715
 C         2.568292        -0.215724        -1.246894
 O         3.893951        -0.494564        -0.854137
 C         4.038942        -0.369417         0.552317
 C         4.477718        -1.544557         1.395425
 C         3.041609        -0.952334         1.447927
 O         1.882914        -1.472726         0.778751
 H         0.184884         0.969547        -0.605862
 H        -0.195709        -0.135402         0.873136
 H         1.236713         1.096809         0.906510
 H         1.840564        -2.381855        -1.439479
 H         0.762959        -1.189138        -2.321891
 H         2.452151         0.616008        -1.890899
 H         4.342178         0.587357         0.897344
 H         4.531123        -2.459846         0.815958
 H         5.201956        -1.344149         2.146243
 H         2.679996        -0.254991         2.147470
