19
Iteration:  4358charge 0 multiplicity 1
 C         0.286529         0.310435         0.236699
 C         1.502214        -0.555954        -0.196314
 C         1.458657        -1.161178        -1.659361
 C         2.585804        -0.186605        -1.128284
 O         3.921469        -0.670858        -0.861750
 C         4.247794        -0.294115         0.537125
 C         4.462585        -1.555765         1.349812
 C         3.172830        -0.833392         1.492116
 O         1.961284        -1.435901         0.802728
 H        -0.071221         1.060860        -0.498641
 H        -0.630964        -0.381220         0.380808
 H         0.562516         0.766466         1.097944
 H         1.818352        -2.153283        -1.758006
 H         0.961992        -0.525061        -2.410638
 H         2.735952         0.657058        -1.737693
 H         4.710148         0.646685         0.681171
 H         4.513500        -2.423058         0.639799
 H         5.164723        -1.660254         2.199448
 H         2.952894        -0.394902         2.488035
