19
Iteration:   527charge 0 multiplicity 1
 C         0.369741         0.259336         0.209711
 C         1.498953        -0.570468        -0.193176
 C         1.541947        -1.174045        -1.566840
 C         2.525632        -0.184869        -1.190221
 O         3.893515        -0.554035        -0.901252
 C         4.227984        -0.385168         0.459499
 C         4.361305        -1.545328         1.419999
 C         3.109091        -0.789205         1.473380
 O         2.051182        -1.483060         0.810288
 H         0.690663         1.152614         0.844042
 H        -0.028266         0.688439        -0.601340
 H        -0.492837        -0.243530         0.764284
 H         2.009285        -2.130253        -1.645974
 H         0.802528        -1.097917        -2.340052
 H         2.546882         0.867084        -1.522805
 H         4.723021         0.591703         0.727465
 H         4.469249        -2.530077         1.000353
 H         4.941219        -1.256889         2.297611
 H         3.047164        -0.205111         2.297354
