19
Iteration:   372charge 0 multiplicity 1
 C         0.354839         0.331838         0.196510
 C         1.520848        -0.600115        -0.191036
 C         1.539181        -1.320964        -1.546751
 C         2.564236        -0.148865        -1.143445
 O         3.939295        -0.548696        -0.866758
 C         4.211123        -0.296456         0.488053
 C         4.437563        -1.570076         1.352576
 C         3.114336        -0.802633         1.430222
 O         1.949430        -1.460589         0.789515
 H         0.638695         1.297981         0.529513
 H        -0.383679         0.493270        -0.624198
 H        -0.268808        -0.104659         1.061462
 H         2.035935        -2.294113        -1.254869
 H         0.689935        -0.970943        -2.209273
 H         2.392718         0.889727        -1.582401
 H         4.763329         0.753056         0.620367
 H         4.244532        -2.529846         0.791015
 H         5.252499        -1.709254         2.131682
 H         2.951528        -0.221780         2.452320
