19
Iteration:   210
 C         0.272745         0.257000         0.024517
 C         1.518643        -0.623105        -0.137864
 C         1.590672        -1.305155        -1.494008
 C         2.450114        -0.073972        -1.160565
 O         3.877724        -0.526357        -0.831234
 C         4.234788        -0.323182         0.510207
 C         4.428752        -1.677213         1.258418
 C         3.262181        -0.880086         1.481529
 O         1.981937        -1.252496         0.941634
 H         0.692553         1.176339         0.628348
 H        -0.078231         0.579008        -0.955821
 H        -0.696793        -0.217404         0.496913
 H         2.097834        -2.292565        -1.626726
 H         0.651614        -1.308347        -2.107083
 H         2.478204         0.686237        -1.991207
 H         4.810146         0.617213         0.885471
 H         4.286186        -2.379830         0.440207
 H         5.123481        -1.932937         2.052718
 H         3.225163        -0.379004         2.352260
