19
Iteration:   628charge 0 multiplicity 1
 C         0.377970         0.296727         0.134605
 C         1.475493        -0.653068        -0.203117
 C         1.526512        -1.246103        -1.555857
 C         2.526735        -0.146096        -1.155700
 O         3.823767        -0.521362        -0.854379
 C         4.262268        -0.369470         0.474194
 C         4.472505        -1.539338         1.396361
 C         3.093218        -0.837055         1.456348
 O         2.024846        -1.441150         0.829042
 H         0.648954         0.842405         1.148350
 H         0.369671         1.197032        -0.431577
 H        -0.646704        -0.136293         0.221028
 H         1.980644        -2.277993        -1.642584
 H         0.841616        -0.937340        -2.390682
 H         2.523382         0.854190        -1.585020
 H         4.646279         0.715422         0.908386
 H         4.476657        -2.574879         0.950630
 H         5.387388        -1.537800         2.044090
 H         2.814004        -0.245474         2.337298
