19
Iteration:  4836charge 0 multiplicity 1
 C         0.577557         0.495458         0.338718
 C         1.465543        -0.609109        -0.229435
 C         1.599224        -1.322156        -1.549522
 C         2.589893        -0.251654        -1.313688
 O         3.912256        -0.496098        -0.879577
 C         4.084797        -0.307261         0.520379
 C         4.347409        -1.542690         1.371366
 C         3.001388        -0.882291         1.466551
 O         1.970043        -1.519606         0.754376
 H         0.110687         1.242679        -0.274971
 H        -0.282136         0.107307         0.927821
 H         1.045010         1.184845         1.093276
 H         1.973061        -2.396590        -1.519949
 H         1.008684        -1.058356        -2.348695
 H         2.512408         0.676173        -1.778941
 H         4.698528         0.665734         0.686292
 H         4.502334        -2.480265         0.894194
 H         4.870707        -1.490114         2.278165
 H         2.888798        -0.597928         2.502294
