19
Iteration:  2957charge 0 multiplicity 1
 C         0.347490         0.218941         0.124271
 C         1.514166        -0.557982        -0.241136
 C         1.538066        -1.173239        -1.582995
 C         2.549819        -0.067225        -1.188627
 O         3.873039        -0.673033        -0.838901
 C         4.191631        -0.343566         0.481695
 C         4.464575        -1.596098         1.333241
 C         3.178189        -0.859189         1.505634
 O         1.960813        -1.334134         0.953775
 H         0.628970         1.237213         0.372200
 H        -0.386531         0.252496        -0.680279
 H        -0.228227        -0.218198         0.877486
 H         1.953341        -2.269213        -1.805386
 H         0.796216        -0.728927        -2.314354
 H         2.636541         0.908608        -1.737117
 H         4.640139         0.587072         0.626917
 H         4.495811        -2.424016         0.675999
 H         5.164008        -1.590186         2.151884
 H         2.989236        -0.529563         2.534326
