19
Iteration:   292
 C         0.315410         0.332310         0.325427
 C         1.510650        -0.636631        -0.176416
 C         1.520329        -1.212047        -1.558981
 C         2.608308        -0.192306        -1.249113
 O         3.869405        -0.697396        -0.955248
 C         4.189826        -0.326675         0.500325
 C         4.422965        -1.424267         1.448149
 C         3.057930        -0.725596         1.477542
 O         2.107774        -1.518675         0.757897
 H         0.444846         0.634019         1.341132
 H         0.278401         1.345513        -0.282481
 H        -0.589918        -0.189480         0.290012
 H         1.847645        -2.249725        -1.606616
 H         0.922202        -0.802633        -2.351656
 H         2.638346         0.806363        -1.684362
 H         4.591906         0.597872         0.607011
 H         4.269690        -2.320226         0.845007
 H         5.180977        -1.627854         2.164730
 H         2.719238         0.045905         2.344869
