19
Iteration:  3130charge 0 multiplicity 1
 C         0.279173         0.234822         0.179282
 C         1.452673        -0.620755        -0.227409
 C         1.629778        -1.240048        -1.576763
 C         2.538902        -0.080063        -1.137626
 O         3.884824        -0.569019        -0.874986
 C         4.225184        -0.424233         0.409293
 C         4.358951        -1.601551         1.296898
 C         3.177491        -0.747854         1.487247
 O         2.032781        -1.336773         0.968753
 H         0.176348         0.200558         1.229897
 H         0.367136         1.291079        -0.349395
 H        -0.754727        -0.058816        -0.051644
 H         2.341660        -2.123577        -1.685221
 H         0.680804        -1.203785        -2.177846
 H         2.486866         0.865980        -1.757723
 H         5.002292         0.256313         0.488420
 H         4.355612        -2.636525         0.981279
 H         5.133577        -1.663060         2.023362
 H         3.021727        -0.104663         2.349435
