19
Iteration:  2275
 C         0.287659         0.254833         0.286075
 C         1.467973        -0.591189        -0.169320
 C         1.576746        -1.221828        -1.641982
 C         2.619462        -0.118984        -1.178355
 O         3.890056        -0.621409        -0.894724
 C         4.226552        -0.352099         0.500046
 C         4.376659        -1.591992         1.410134
 C         3.096455        -0.766155         1.476595
 O         2.067063        -1.397411         0.767963
 H         0.437176         0.893323         1.168367
 H         0.021216         0.950473        -0.504360
 H        -0.628830        -0.421878         0.422994
 H         1.808108        -2.270846        -1.784493
 H         0.923404        -0.738787        -2.390113
 H         2.521184         0.841862        -1.662934
 H         5.054826         0.477694         0.695660
 H         4.326475        -2.630773         1.141243
 H         5.113114        -1.481041         2.184956
 H         2.734236        -0.101855         2.273675
