19
Iteration:   272
 C         0.384585         0.261939         0.244054
 C         1.484311        -0.567043        -0.215509
 C         1.490317        -1.288645        -1.609923
 C         2.520033        -0.209279        -1.213601
 O         3.866015        -0.581584        -0.828477
 C         4.205042        -0.323142         0.469169
 C         4.397513        -1.552146         1.399074
 C         3.161116        -0.763985         1.449181
 O         2.082684        -1.382310         0.789201
 H         0.481646         0.407214         1.257653
 H         0.361824         1.321538        -0.199799
 H        -0.525926        -0.239037         0.077544
 H         1.780057        -2.328131        -1.455295
 H         0.641275        -1.007111        -2.230550
 H         2.604548         0.737087        -1.746904
 H         4.885920         0.449431         0.646662
 H         4.341247        -2.595299         1.150238
 H         5.093607        -1.303010         2.166521
 H         2.882696        -0.142328         2.405734
