19
Iteration:  2217charge 0 multiplicity 1
 C         0.488637         0.370731         0.270684
 C         1.498527        -0.646822        -0.292749
 C         1.467827        -1.135071        -1.672241
 C         2.587673        -0.175950        -1.206391
 O         3.893865        -0.638899        -0.825904
 C         4.068718        -0.266699         0.589361
 C         4.493307        -1.489382         1.461602
 C         3.030965        -0.854285         1.453065
 O         2.061112        -1.576986         0.737873
 H         0.935527         1.237531         0.889588
 H        -0.217265         0.701033        -0.498031
 H        -0.079784        -0.028536         1.059687
 H         1.492823        -2.230695        -1.739020
 H         0.749933        -0.754538        -2.403313
 H         2.819317         0.773768        -1.630605
 H         4.577577         0.743223         0.843396
 H         4.369822        -2.469458         0.991956
 H         5.274779        -1.277001         2.161086
 H         2.611070        -0.312370         2.207130
