19
Iteration:  1916charge 0 multiplicity 1
 C         0.356929         0.262739         0.172510
 C         1.563268        -0.593245        -0.189246
 C         1.474856        -1.115174        -1.672024
 C         2.581003        -0.162265        -1.155555
 O         3.846449        -0.641138        -0.828176
 C         4.174917        -0.355576         0.512720
 C         4.456534        -1.520304         1.362231
 C         3.114459        -0.818727         1.487202
 O         2.050863        -1.437478         0.853862
 H         0.425391         0.900549         0.998741
 H         0.085491         0.815016        -0.668035
 H        -0.513598        -0.492363         0.395485
 H         1.878323        -2.166407        -1.709536
 H         0.712854        -0.718393        -2.370989
 H         2.790980         0.780120        -1.643588
 H         4.682553         0.512259         0.667614
 H         4.328021        -2.487523         0.884436
 H         5.226403        -1.532767         2.140383
 H         2.804215        -0.154373         2.401038
