19
Iteration:  1744
 C         0.199411         0.249437         0.103398
 C         1.462541        -0.599390        -0.175261
 C         1.620583        -1.219968        -1.587678
 C         2.489001        -0.044514        -1.143440
 O         3.898605        -0.478326        -0.886662
 C         4.277554        -0.483123         0.493525
 C         4.397187        -1.679819         1.390254
 C         3.220512        -0.794297         1.515432
 O         2.043402        -1.388038         0.864548
 H         0.551439         1.038280         0.849096
 H        -0.268094         0.858631        -0.685453
 H        -0.654186        -0.293171         0.349889
 H         2.097895        -2.218754        -1.599357
 H         0.950915        -0.972545        -2.499309
 H         2.467049         0.937086        -1.610458
 H         4.884862         0.415263         0.672540
 H         4.030782        -2.659699         1.001122
 H         5.239161        -1.696871         2.095583
 H         3.068848        -0.114383         2.346502
