19
Iteration:  4685
 C         0.333389         0.454192         0.212439
 C         1.436676        -0.619005        -0.224080
 C         1.668092        -1.401922        -1.476924
 C         2.513367        -0.180202        -1.151912
 O         3.971407        -0.346238        -0.866551
 C         4.207882        -0.376396         0.474922
 C         4.379567        -1.722624         1.299324
 C         3.150831        -0.843239         1.433912
 O         1.933663        -1.406070         0.847654
 H        -0.001954         1.146650        -0.722758
 H        -0.647366        -0.057364         0.621617
 H         0.947271         1.095729         0.852543
 H         1.856164        -2.397312        -1.181066
 H         0.938879        -1.258925        -2.365030
 H         2.491583         0.679629        -1.772173
 H         4.745965         0.434203         0.783438
 H         4.113659        -2.550091         0.663841
 H         5.156507        -2.025615         1.999011
 H         3.080043        -0.183111         2.329858
