19
Iteration:  1842
 C         0.325210         0.312585        -0.021999
 C         1.510777        -0.597981        -0.184311
 C         1.580086        -1.384050        -1.474195
 C         2.473553        -0.187015        -1.231285
 O         3.920724        -0.231301        -0.793527
 C         4.268332        -0.372287         0.567064
 C         4.351567        -1.792735         1.116790
 C         3.232638        -0.881356         1.553872
 O         1.973079        -1.313264         1.004695
 H         0.467374         1.295638         0.523992
 H        -0.081597         0.583124        -1.023240
 H        -0.545837        -0.257241         0.399756
 H         2.032708        -2.408714        -1.383986
 H         0.789228        -1.177723        -2.224101
 H         2.342205         0.743812        -1.745360
 H         4.927844         0.431585         0.909514
 H         4.028298        -2.660910         0.602413
 H         5.116815        -1.955857         1.854224
 H         3.158629        -0.461715         2.524806
