19
Iteration:  2185charge 0 multiplicity 1
 C         0.392249         0.430699         0.173148
 C         1.446799        -0.587603        -0.231333
 C         1.595744        -1.248597        -1.590291
 C         2.580384        -0.120325        -1.168710
 O         3.866668        -0.602113        -0.811989
 C         4.093444        -0.267473         0.568848
 C         4.537070        -1.527191         1.324367
 C         3.101589        -1.014717         1.441824
 O         1.964594        -1.500452         0.812565
 H         0.915801         1.246538         0.810758
 H         0.008424         0.989040        -0.696415
 H        -0.441158        -0.129448         0.589175
 H         1.949823        -2.265806        -1.441492
 H         0.825874        -0.938942        -2.307691
 H         2.630732         0.846880        -1.701734
 H         4.618775         0.784378         0.880242
 H         4.736330        -2.479749         0.852301
 H         5.098114        -1.179860         2.140791
 H         2.824733        -0.647633         2.367990
