19
Iteration:  1541charge 0 multiplicity 1
 C         0.270359         0.218534         0.078794
 C         1.519137        -0.613008        -0.229603
 C         1.663072        -1.300672        -1.604209
 C         2.548999        -0.062582        -1.179553
 O         3.824628        -0.412413        -0.808479
 C         4.279873        -0.480988         0.530798
 C         4.344213        -1.740370         1.153807
 C         3.206266        -0.809084         1.562596
 O         1.956241        -1.254059         1.040504
 H         0.336006         0.931486         0.816083
 H        -0.066857         0.787585        -0.895452
 H        -0.495508        -0.528636         0.356611
 H         2.349215        -2.112085        -1.477861
 H         0.876035        -1.177041        -2.317363
 H         2.487751         0.919316        -1.721596
 H         5.150594         0.219574         0.655293
 H         3.979196        -2.552994         0.585119
 H         5.193677        -1.659535         1.809154
 H         3.148658        -0.126999         2.455544
