19
Iteration:   254charge 0 multiplicity 1
 C         0.279357         0.328726         0.218160
 C         1.458083        -0.609130        -0.218711
 C         1.600488        -1.332351        -1.536895
 C         2.573675        -0.177796        -1.248183
 O         3.896364        -0.528727        -0.946900
 C         4.233726        -0.394683         0.480130
 C         4.492214        -1.606186         1.398803
 C         3.140334        -0.809852         1.443537
 O         1.964811        -1.339924         0.943158
 H         0.468562         0.637341         1.326515
 H         0.250306         1.221725        -0.349379
 H        -0.785228        -0.113238         0.049626
 H         2.085905        -2.293446        -1.749151
 H         0.790010        -0.994896        -2.240318
 H         2.238207         0.785617        -1.688035
 H         4.681832         0.674177         0.628944
 H         4.544184        -2.512193         0.785809
 H         5.108733        -1.498150         2.323695
 H         2.945493        -0.224094         2.248511
