19
Iteration:  4580charge 0 multiplicity 1
 C         0.334926         0.173391         0.319122
 C         1.554635        -0.528358        -0.228787
 C         1.530468        -1.095705        -1.659603
 C         2.641809        -0.152859        -1.216996
 O         3.852626        -0.713999        -0.926800
 C         4.250266        -0.415942         0.424240
 C         4.311893        -1.587171         1.450048
 C         3.086340        -0.706396         1.522087
 O         2.069586        -1.354437         0.825188
 H        -0.027585         0.849648        -0.440653
 H        -0.290491        -0.648240         0.546696
 H         0.479691         0.621725         1.282570
 H         1.660127        -2.146477        -1.736650
 H         0.659433        -0.525447        -2.218342
 H         2.688664         0.928734        -1.641053
 H         4.966955         0.478361         0.557466
 H         4.085578        -2.592392         1.180585
 H         5.093788        -1.443192         2.160381
 H         2.847805        -0.103213         2.325622
