19
Iteration:  2052
 C         0.324084         0.299948         0.024980
 C         1.485526        -0.581156        -0.142696
 C         1.698180        -1.293761        -1.536791
 C         2.530071        -0.061788        -1.136951
 O         3.874264        -0.490270        -0.820294
 C         4.209253        -0.351557         0.524167
 C         4.406152        -1.670390         1.140270
 C         3.200635        -0.891127         1.561528
 O         1.887472        -1.362874         0.970724
 H         0.645285         1.337639         0.468181
 H        -0.153999         0.374459        -1.052612
 H        -0.445045        -0.094601         0.655846
 H         2.083888        -2.301219        -1.771008
 H         0.960035        -1.104034        -2.289070
 H         2.419481         0.909718        -1.681555
 H         5.031189         0.547723         0.829676
 H         4.326719        -2.557513         0.442401
 H         5.202431        -1.754018         1.994787
 H         2.930551        -0.534441         2.511756
