19
Iteration:  3075
 C         0.368820         0.350746         0.206547
 C         1.462014        -0.533186        -0.181213
 C         1.587144        -1.214474        -1.554809
 C         2.578639        -0.196088        -1.244633
 O         3.823200        -0.638994        -0.846226
 C         4.138050        -0.351009         0.491230
 C         4.598646        -1.474696         1.335031
 C         3.120933        -0.921999         1.505231
 O         1.972109        -1.416123         0.815688
 H         0.474564         0.759439         1.192431
 H         0.135908         1.226155        -0.537059
 H        -0.577212        -0.210043         0.145010
 H         1.925152        -2.292240        -1.474032
 H         0.823548        -1.123634        -2.333580
 H         2.394609         0.834296        -1.609457
 H         4.550068         0.600293         0.600071
 H         4.618979        -2.476493         0.880684
 H         5.168135        -1.386661         2.228348
 H         2.949756        -0.393351         2.424354
