19
Iteration:   645charge 0 multiplicity 1
 C         0.296447         0.277453         0.145313
 C         1.497385        -0.621077        -0.147928
 C         1.611763        -1.215642        -1.543793
 C         2.564485        -0.146611        -1.138793
 O         3.933726        -0.531914        -0.883916
 C         4.178982        -0.313808         0.452509
 C         4.414416        -1.632507         1.278426
 C         3.134226        -0.786562         1.499986
 O         2.017587        -1.439665         0.898311
 H         0.316911         0.761632         1.104156
 H         0.265816         1.113421        -0.643413
 H        -0.693306        -0.250532         0.000341
 H         1.988197        -2.201126        -1.634172
 H         0.751348        -1.170951        -2.163967
 H         2.325032         0.846895        -1.563552
 H         4.813345         0.440418         0.539841
 H         4.170114        -2.512089         0.725919
 H         4.953732        -1.495935         2.181760
 H         2.961372        -0.151664         2.395597
