19
Iteration:  2552charge 0 multiplicity 1
 C         0.374694         0.386359         0.132609
 C         1.466743        -0.582463        -0.187880
 C         1.607229        -1.214104        -1.503164
 C         2.574328        -0.133409        -1.231301
 O         3.794441        -0.641680        -0.837928
 C         4.142781        -0.314873         0.471371
 C         4.489644        -1.496266         1.354552
 C         3.134826        -0.910039         1.432374
 O         2.032091        -1.483090         0.859926
 H         0.212561         0.143311         1.159461
 H         0.746095         1.431987         0.177254
 H        -0.520412         0.181486        -0.445592
 H         2.070661        -2.218445        -1.422102
 H         0.805148        -1.177078        -2.225392
 H         2.431013         0.852405        -1.648797
 H         4.530305         0.632499         0.645922
 H         4.443909        -2.530250         1.046535
 H         5.118741        -1.318264         2.190289
 H         2.892505        -0.258835         2.263661
