19
Iteration:  4263charge 0 multiplicity 1
 C         0.289771         0.353837         0.201753
 C         1.504137        -0.477424        -0.171090
 C         1.547247        -1.167647        -1.549960
 C         2.584113        -0.155872        -1.219627
 O         3.971448        -0.611141        -0.852044
 C         4.089047        -0.374938         0.540652
 C         4.538514        -1.595581         1.350792
 C         3.102542        -0.928146         1.438243
 O         1.951188        -1.460455         0.810384
 H        -0.268833         0.807328        -0.694279
 H        -0.433779        -0.300708         0.709619
 H         0.690147         1.208407         0.852922
 H         2.056484        -2.097409        -1.519841
 H         0.885156        -0.831697        -2.387448
 H         2.613750         0.807558        -1.701987
 H         4.417148         0.637336         0.661496
 H         4.658681        -2.546305         0.734961
 H         5.189403        -1.324361         2.208819
 H         3.004037        -0.500453         2.431290
