19
Iteration:  3954
 C         0.363362         0.436198         0.222492
 C         1.415832        -0.533537        -0.187913
 C         1.673897        -1.358746        -1.495507
 C         2.574521        -0.206937        -1.266742
 O         3.911906        -0.416909        -0.814068
 C         4.178037        -0.338244         0.521871
 C         4.422198        -1.685777         1.242611
 C         3.095219        -0.921696         1.418952
 O         1.922117        -1.402128         0.862606
 H        -0.151973         1.041017        -0.551142
 H        -0.339682        -0.122724         0.933419
 H         0.932579         1.196834         0.788053
 H         2.147382        -2.357933        -1.237769
 H         1.102819        -1.423930        -2.570057
 H         2.404497         0.815902        -1.754591
 H         4.768482         0.576559         0.817569
 H         4.488562        -2.494864         0.529866
 H         5.091858        -1.748483         2.131100
 H         2.967592        -0.498111         2.386026
