19
Iteration:  4850
 C         0.567436         0.467888         0.320978
 C         1.568550        -0.527974        -0.261175
 C         1.561220        -1.313736        -1.594242
 C         2.568244        -0.215903        -1.241023
 O         3.894480        -0.496067        -0.852978
 C         4.042488        -0.366103         0.558371
 C         4.479318        -1.544066         1.393020
 C         3.041434        -0.957747         1.447890
 O         1.883580        -1.468766         0.781345
 H         0.201530         0.980080        -0.622269
 H        -0.177596        -0.178470         0.853884
 H         1.233707         1.102710         0.862285
 H         1.819111        -2.356501        -1.434814
 H         0.736355        -1.198171        -2.350318
 H         2.455400         0.644641        -1.898586
 H         4.320623         0.560994         0.870055
 H         4.535013        -2.476935         0.817872
 H         5.235252        -1.334940         2.148053
 H         2.682439        -0.245345         2.131286
