19
Iteration:   604charge 0 multiplicity 1
 C         0.419090         0.366375         0.299128
 C         1.465909        -0.637167        -0.224709
 C         1.550304        -1.212273        -1.645612
 C         2.568463        -0.179194        -1.244522
 O         3.875503        -0.625734        -0.871533
 C         4.082293        -0.280304         0.525823
 C         4.463902        -1.486982         1.409444
 C         3.097642        -0.851052         1.450413
 O         2.030296        -1.502687         0.796244
 H         0.748958         1.099203         1.150228
 H         0.122920         1.060699        -0.402265
 H        -0.554140        -0.224605         0.630582
 H         1.853661        -2.260863        -1.626846
 H         0.818131        -0.965955        -2.432097
 H         2.649491         0.840302        -1.640992
 H         4.721658         0.594009         0.793283
 H         4.790272        -2.442796         0.993019
 H         5.117658        -1.230010         2.251647
 H         2.903421        -0.484895         2.360641
