19
Iteration:  2710charge 0 multiplicity 1
 C         0.400425         0.366320         0.088278
 C         1.465080        -0.593537        -0.124973
 C         1.591428        -1.259453        -1.531336
 C         2.491273        -0.206225        -1.150205
 O         3.846108        -0.663493        -0.842790
 C         4.173628        -0.315095         0.455788
 C         4.531373        -1.450473         1.304685
 C         3.140182        -0.861124         1.400290
 O         1.975124        -1.451050         0.945238
 H        -0.607600        -0.078194        -0.164455
 H         0.316822         0.712434         1.113137
 H         0.371794         1.309933        -0.481234
 H         1.851149        -2.264248        -1.503773
 H         0.841534        -0.994472        -2.182447
 H         2.466619         0.759077        -1.603194
 H         4.673538         0.651875         0.545203
 H         4.636826        -2.297072         0.683684
 H         5.219626        -1.242168         2.041933
 H         3.006906        -0.327787         2.325631
