19
Iteration:  4188
 C         0.276068         0.216336         0.239486
 C         1.524732        -0.553384        -0.227700
 C         1.569834        -1.235437        -1.549905
 C         2.619764        -0.039108        -1.157005
 O         3.916788        -0.513942        -0.954571
 C         4.202882        -0.460039         0.502476
 C         4.341274        -1.691744         1.376575
 C         3.150136        -0.831540         1.418187
 O         1.976504        -1.308914         0.889316
 H         0.064724         1.016488        -0.442508
 H        -0.446973        -0.452041         0.035397
 H         0.244905         0.632416         1.231739
 H         2.200647        -2.080974        -1.482949
 H         0.828795        -0.957456        -2.329621
 H         2.631236         0.921875        -1.689296
 H         5.019446         0.311224         0.620086
 H         4.231295        -2.767661         1.108849
 H         5.142952        -1.578821         2.112158
 H         3.011605        -0.164856         2.370992
