19
Iteration:   764charge 0 multiplicity 1
 C         0.332387         0.362623         0.215170
 C         1.473103        -0.628469        -0.242638
 C         1.622102        -1.397925        -1.577360
 C         2.506947        -0.122548        -1.212747
 O         3.911692        -0.391299        -0.791639
 C         4.191241        -0.412390         0.506673
 C         4.481678        -1.660480         1.279292
 C         3.115013        -0.860224         1.479398
 O         1.970089        -1.346130         0.879103
 H         0.673971         1.184736         0.686173
 H        -0.339320         0.571448        -0.690382
 H        -0.287535        -0.286115         0.822771
 H         2.103917        -2.357931        -1.802764
 H         0.856982        -1.125892        -2.283464
 H         2.500789         0.827979        -1.787379
 H         4.763171         0.449349         0.830231
 H         4.300980        -2.576055         0.706732
 H         5.210063        -1.430737         2.048112
 H         2.878137        -0.249096         2.419614
