19
Iteration:  2341charge 0 multiplicity 1
 C         0.312727         0.327591         0.026241
 C         1.480688        -0.649067        -0.221143
 C         1.679727        -1.368968        -1.516855
 C         2.522248        -0.108824        -1.100126
 O         3.854415        -0.432871        -0.851709
 C         4.231424        -0.324248         0.537386
 C         4.429059        -1.691916         1.206972
 C         3.176016        -0.903231         1.421026
 O         1.912885        -1.297043         1.045896
 H         0.315020         1.048407         0.849983
 H         0.312905         1.069083        -0.807801
 H        -0.730702        -0.171520         0.131756
 H         2.357774        -2.190882        -1.396540
 H         0.911863        -1.287086        -2.328316
 H         2.382690         0.827701        -1.659171
 H         4.971776         0.593469         0.799772
 H         4.214628        -2.568129         0.524942
 H         5.254261        -2.051916         1.858976
 H         3.184298        -0.389679         2.405495
