19
Iteration:   173
 C         0.203425         0.249511         0.174586
 C         1.471806        -0.593216        -0.146409
 C         1.690435        -1.294800        -1.507818
 C         2.572371        -0.159603        -1.165763
 O         3.982863        -0.425793        -0.896570
 C         4.236205        -0.436711         0.432361
 C         4.400011        -1.696291         1.255641
 C         3.190385        -0.817660         1.427841
 O         1.900877        -1.273551         0.965665
 H         0.381531         1.232506         0.355016
 H        -0.522681         0.303374        -0.782628
 H        -0.270011        -0.102009         1.013092
 H         2.093348        -2.295016        -1.379352
 H         0.975972        -1.097204        -2.299265
 H         2.365472         0.710081        -1.819060
 H         4.710179         0.443408         0.700643
 H         4.184048        -2.671494         0.843957
 H         5.190674        -1.694838         2.006472
 H         3.019065        -0.075823         2.332399
