19
Iteration:  3993charge 0 multiplicity 1
 C         0.308878         0.370617         0.127682
 C         1.542154        -0.592700        -0.211136
 C         1.479939        -1.189481        -1.597647
 C         2.537161        -0.118215        -1.228046
 O         3.918536        -0.598950        -0.858463
 C         4.151604        -0.341948         0.563459
 C         4.422595        -1.605350         1.296980
 C         3.203928        -0.838040         1.513339
 O         2.009855        -1.488729         0.931749
 H         0.334430         1.010799        -0.783919
 H        -0.581993        -0.366285         0.241902
 H         0.456995         0.920063         1.083770
 H         1.947726        -2.158809        -1.731495
 H         0.755827        -0.761565        -2.159310
 H         2.510958         0.856678        -1.689585
 H         4.731374         0.609938         0.737625
 H         4.452447        -2.500242         0.695270
 H         5.121634        -1.608301         2.113063
 H         3.100036        -0.252585         2.466662
