19
Iteration:  1604charge 0 multiplicity 1
 C         0.261557         0.239297         0.199765
 C         1.465981        -0.563983        -0.207634
 C         1.637294        -1.194178        -1.599971
 C         2.622653        -0.089327        -1.178545
 O         3.827049        -0.614308        -0.835727
 C         4.197973        -0.357451         0.516992
 C         4.422439        -1.620612         1.295332
 C         3.137983        -0.850808         1.535246
 O         2.038037        -1.340151         0.845652
 H         0.524326         1.056420         0.946758
 H        -0.203092         0.784789        -0.710504
 H        -0.505768        -0.408036         0.502729
 H         2.098919        -2.195056        -1.756208
 H         0.941867        -0.913851        -2.422180
 H         2.585950         0.792856        -1.809833
 H         4.794193         0.610286         0.868263
 H         4.303706        -2.545539         0.717305
 H         5.153784        -1.798723         2.105005
 H         2.953326        -0.294991         2.387832
