19
Iteration:  3908charge 0 multiplicity 1
 C         0.401071         0.289194         0.132047
 C         1.434983        -0.669002        -0.195576
 C         1.552548        -1.204934        -1.599545
 C         2.563116        -0.167866        -1.138190
 O         3.908078        -0.370272        -0.880499
 C         4.264535        -0.426246         0.504128
 C         4.404587        -1.724129         1.327787
 C         3.190148        -0.833615         1.463231
 O         1.932440        -1.359369         0.915706
 H        -0.123140         0.643363        -0.764959
 H        -0.507532        -0.230946         0.711036
 H         0.620999         1.283185         0.531584
 H         1.904779        -2.300021        -1.578523
 H         0.743594        -0.988411        -2.301144
 H         2.336137         0.810770        -1.630267
 H         4.922354         0.462021         0.917648
 H         4.215386        -2.641678         0.875628
 H         5.063210        -1.719491         2.113622
 H         3.085549        -0.229941         2.355227
