19
Iteration:  2208
 C         0.462642         0.402903         0.259460
 C         1.469350        -0.599462        -0.248592
 C         1.455173        -1.194353        -1.639810
 C         2.600560        -0.187369        -1.175625
 O         3.897811        -0.665943        -0.794553
 C         4.096637        -0.237821         0.611304
 C         4.504010        -1.488221         1.406303
 C         3.097618        -0.871562         1.472035
 O         2.014819        -1.590019         0.666301
 H         0.990894         1.368390         0.578958
 H        -0.070782         0.716923        -0.618572
 H        -0.302562        -0.126753         0.876124
 H         1.610314        -2.301525        -1.672537
 H         0.879746        -0.628441        -2.348277
 H         2.464684         0.850765        -1.470132
 H         4.559613         0.887943         0.814642
 H         4.644271        -2.328164         0.798854
 H         5.043395        -1.385584         2.287586
 H         2.786618        -0.291750         2.299582
