19
Iteration:  3214
 C         0.403946         0.405419         0.171482
 C         1.526571        -0.642125        -0.239853
 C         1.658476        -1.236306        -1.556176
 C         2.514178        -0.095260        -1.168433
 O         3.784476        -0.573390        -0.887986
 C         4.104765        -0.346570         0.460271
 C         4.558016        -1.578387         1.271932
 C         3.118858        -0.921375         1.526389
 O         1.950870        -1.448910         0.939221
 H         0.857347         1.439875         0.240615
 H        -0.420118         0.347408        -0.604966
 H        -0.168046         0.095029         1.048338
 H         2.216302        -2.154022        -1.687173
 H         0.873389        -1.091923        -2.222297
 H         2.423273         0.934387        -1.516526
 H         4.585572         0.732626         0.726068
 H         4.548691        -2.642741         0.828302
 H         5.266698        -1.256282         2.033401
 H         2.868000        -0.506934         2.466550
