19
Iteration:  1288charge 0 multiplicity 1
 C         0.222738         0.309505         0.125416
 C         1.466206        -0.579862        -0.236704
 C         1.647740        -1.390850        -1.505805
 C         2.583032        -0.130615        -1.186426
 O         3.972756        -0.336639        -0.868018
 C         4.211534        -0.379518         0.505690
 C         4.416879        -1.702460         1.181317
 C         3.173821        -0.911636         1.504160
 O         1.911551        -1.304200         0.989498
 H         0.405651         1.137028         0.757822
 H        -0.339017         0.800637        -0.742642
 H        -0.440070        -0.292369         0.735443
 H         2.103735        -2.388523        -1.522344
 H         0.936647        -1.277632        -2.312876
 H         2.426238         0.692758        -1.811466
 H         4.817497         0.487640         0.896996
 H         4.402210        -2.620977         0.585732
 H         5.110184        -1.767538         2.025663
 H         3.204184        -0.509798         2.513979
