19
Iteration:  2818charge 0 multiplicity 1
 C         0.355957         0.347743         0.142663
 C         1.498772        -0.616623        -0.206168
 C         1.465781        -1.228777        -1.566604
 C         2.554516        -0.164004        -1.206334
 O         3.845120        -0.636430        -0.900089
 C         4.200652        -0.342386         0.493913
 C         4.493237        -1.527825         1.331535
 C         3.124706        -0.842921         1.541920
 O         2.042176        -1.414473         0.915621
 H        -0.030061         0.166387         1.219021
 H         0.660865         1.344851        -0.154309
 H        -0.327636         0.073199        -0.683041
 H         2.079017        -2.161828        -1.699673
 H         0.612911        -0.993075        -2.224152
 H         2.575836         0.864617        -1.506515
 H         4.560428         0.628484         0.739024
 H         4.584938        -2.464743         0.931298
 H         5.162954        -1.477440         2.130438
 H         3.038145        -0.103399         2.348663
