19
Iteration:   494charge 0 multiplicity 1
 C         0.261353         0.253056         0.120875
 C         1.487411        -0.527920        -0.184166
 C         1.604475        -1.265399        -1.607236
 C         2.561018        -0.217925        -1.178276
 O         3.878941        -0.559283        -0.811088
 C         4.221602        -0.365522         0.480511
 C         4.442165        -1.629870         1.211792
 C         3.196573        -0.764324         1.515874
 O         1.947336        -1.317461         0.943400
 H         0.437626         0.645998         1.165342
 H         0.026970         0.935857        -0.575258
 H        -0.594074        -0.520620         0.182019
 H         2.160533        -2.166070        -1.341386
 H         0.929918        -1.081922        -2.432945
 H         2.449421         0.834941        -1.546804
 H         4.793944         0.556200         0.826081
 H         4.421067        -2.504025         0.553078
 H         5.165748        -1.608834         2.046412
 H         3.129891        -0.273634         2.414744
