19
Iteration:  3305
 C         0.369221         0.291455         0.340260
 C         1.435683        -0.619896        -0.171790
 C         1.637822        -1.136143        -1.673763
 C         2.582195        -0.163063        -1.157651
 O         3.874000        -0.613017        -0.907176
 C         4.258027        -0.435357         0.448039
 C         4.391090        -1.515228         1.376423
 C         3.051017        -0.770074         1.432513
 O         1.997593        -1.461989         0.859042
 H         0.434896         1.088937        -0.421710
 H        -0.784667        -0.122234         0.162659
 H         0.557180         0.392334         1.425378
 H         2.003819        -2.238123        -1.728039
 H         0.950668        -0.746664        -2.491841
 H         2.565461         0.927473        -1.488853
 H         4.810741         0.532003         0.562835
 H         4.259261        -2.537864         1.108986
 H         5.194412        -1.346488         2.047993
 H         2.800299        -0.005354         2.181980
