19
Iteration:  1441charge 0 multiplicity 1
 C         0.418070         0.331118         0.236546
 C         1.478485        -0.649297        -0.176619
 C         1.629789        -1.188782        -1.612182
 C         2.578589        -0.138286        -1.115556
 O         3.894175        -0.603231        -0.868330
 C         4.070520        -0.394944         0.452843
 C         4.436364        -1.516591         1.336318
 C         3.102237        -0.803412         1.457114
 O         1.997079        -1.497358         0.838288
 H         0.782503         1.098308         0.946739
 H        -0.170594         0.865805        -0.704152
 H        -0.411477        -0.264511         0.560935
 H         1.929872        -2.259168        -1.653517
 H         0.833041        -0.804475        -2.304857
 H         2.604259         0.936989        -1.253384
 H         4.586850         0.690177         0.639099
 H         4.490125        -2.452782         0.696730
 H         5.197362        -1.319608         2.107148
 H         2.769129         0.001040         2.222944
