19
Iteration:  1372charge 0 multiplicity 1
 C         0.287167         0.268274         0.294250
 C         1.500382        -0.610675        -0.196581
 C         1.592187        -1.137236        -1.571566
 C         2.610573        -0.165266        -1.190716
 O         3.931504        -0.680379        -0.907134
 C         4.196875        -0.340216         0.474697
 C         4.372097        -1.491719         1.396040
 C         3.090349        -0.748968         1.437380
 O         2.007308        -1.498332         0.798269
 H         0.804772         0.761022         1.233600
 H        -0.043261         1.083490        -0.363258
 H        -0.576719        -0.377867         0.491679
 H         1.975754        -2.157975        -1.578451
 H         0.797973        -0.767803        -2.196348
 H         2.511695         0.867725        -1.476899
 H         4.839194         0.614207         0.548591
 H         4.423676        -2.286549         0.668954
 H         5.101714        -1.410482         2.200853
 H         2.789060        -0.195308         2.205136
