19
Iteration:  3479
 C         0.277074         0.236538         0.116198
 C         1.591831        -0.502952        -0.208537
 C         1.549157        -1.162953        -1.611298
 C         2.577451        -0.108062        -1.187951
 O         3.820406        -0.680339        -0.840537
 C         4.176580        -0.344099         0.566469
 C         4.520227        -1.617027         1.284014
 C         3.176992        -0.879326         1.525779
 O         1.959533        -1.339263         0.917967
 H         0.261543         1.159964        -0.501320
 H        -0.558776        -0.359766        -0.053125
 H         0.185504         0.419053         1.180513
 H         1.842840        -2.184855        -1.834447
 H         0.698458        -0.763988        -2.285852
 H         2.612649         0.833668        -1.780446
 H         4.714477         0.727191         0.682884
 H         4.453260        -2.433305         0.628493
 H         5.203023        -1.555550         2.118562
 H         3.114970        -0.425440         2.514091
