19
Iteration:   639charge 0 multiplicity 1
 C         0.340327         0.302315         0.138857
 C         1.440893        -0.657133        -0.184515
 C         1.569409        -1.230009        -1.524417
 C         2.567643        -0.111475        -1.160606
 O         3.909309        -0.531480        -0.872863
 C         4.135037        -0.360622         0.521213
 C         4.421552        -1.595771         1.311666
 C         3.174257        -0.759543         1.435047
 O         2.021978        -1.461133         0.877166
 H         0.407108         0.671305         1.238139
 H         0.361941         0.987517        -0.676433
 H        -0.645179        -0.209164         0.018923
 H         2.002897        -2.269478        -1.534903
 H         0.731866        -1.009382        -2.247425
 H         2.442378         0.903424        -1.544789
 H         4.960377         0.495622         0.687655
 H         4.312817        -2.560429         0.756956
 H         5.155925        -1.402219         2.138382
 H         3.019249        -0.209218         2.367178
