19
Iteration:  3435charge 0 multiplicity 1
 C         0.303137         0.353724         0.129864
 C         1.466722        -0.615764        -0.222893
 C         1.663127        -1.306585        -1.509799
 C         2.531412        -0.122988        -1.123844
 O         3.860865        -0.381745        -0.841060
 C         4.292869        -0.458789         0.481130
 C         4.386970        -1.711105         1.276659
 C         3.132174        -0.838398         1.470746
 O         1.954701        -1.352059         0.883473
 H         0.086413         1.020964        -0.678171
 H        -0.424212        -0.387277         0.336609
 H         0.571033         0.960349         0.966088
 H         2.071223        -2.374630        -1.391207
 H         0.963885        -1.290614        -2.394014
 H         2.338968         0.897729        -1.555883
 H         5.000172         0.512040         0.603213
 H         4.235344        -2.629248         0.750554
 H         5.173833        -1.703723         1.978546
 H         3.052794        -0.287912         2.404655
