19
Iteration:  1772charge 0 multiplicity 1
 C         0.224039         0.171075         0.074071
 C         1.528267        -0.535826        -0.145101
 C         1.622932        -1.303113        -1.555642
 C         2.576891        -0.123020        -1.153371
 O         3.924367        -0.435684        -0.813212
 C         4.258988        -0.415625         0.516934
 C         4.337632        -1.747126         1.187844
 C         3.210598        -0.825361         1.449964
 O         1.975767        -1.198249         0.957533
 H         0.327510         0.822511         0.904924
 H        -0.201978         0.784677        -0.708029
 H        -0.657130        -0.631237         0.329192
 H         2.048666        -2.299287        -1.593203
 H         0.908344        -0.993558        -2.323728
 H         2.405125         0.881357        -1.663668
 H         4.885327         0.453035         0.765471
 H         4.025027        -2.655725         0.634820
 H         4.999489        -1.953585         2.055596
 H         3.190026        -0.333338         2.516675
