19
Iteration:  2959
 C         0.335792         0.213440         0.128552
 C         1.512921        -0.544618        -0.229050
 C         1.543711        -1.172477        -1.583147
 C         2.551856        -0.077026        -1.186122
 O         3.878514        -0.683233        -0.840516
 C         4.174705        -0.325539         0.499944
 C         4.454457        -1.592502         1.335130
 C         3.189615        -0.868478         1.482642
 O         1.959614        -1.337099         0.942370
 H         0.722023         1.263711         0.380958
 H        -0.334612         0.192296        -0.690454
 H        -0.256439        -0.174641         0.951163
 H         1.977931        -2.239265        -1.805384
 H         0.810653        -0.677386        -2.277540
 H         2.645001         0.853349        -1.749778
 H         4.660992         0.678145         0.535457
 H         4.497974        -2.468064         0.695567
 H         5.135396        -1.597922         2.138685
 H         3.011545        -0.528917         2.540617
