19
Iteration:  2919charge 0 multiplicity 1
 C         0.250418         0.323447         0.125251
 C         1.434303        -0.675327        -0.156709
 C         1.655159        -1.279213        -1.468764
 C         2.549972        -0.079675        -1.156724
 O         3.863710        -0.448892        -0.940650
 C         4.334579        -0.451129         0.446505
 C         4.304920        -1.673653         1.350544
 C         3.165412        -0.788885         1.422756
 O         2.040807        -1.340459         0.924794
 H         0.400804         0.801021         1.129223
 H         0.171429         0.847631        -0.861047
 H        -0.642772        -0.379643         0.370814
 H         2.048367        -2.211880        -1.381765
 H         1.057912        -1.112766        -2.313995
 H         2.376212         0.819070        -1.727258
 H         4.913871         0.548622         0.702027
 H         4.185449        -2.625650         0.745273
 H         4.985137        -1.792408         2.209890
 H         3.134010        -0.193915         2.345307
