19
Iteration:   185
 C         0.209309         0.287231         0.105323
 C         1.472127        -0.526247        -0.212147
 C         1.684288        -1.350685        -1.539995
 C         2.551622        -0.184353        -1.127080
 O         3.863548        -0.404219        -0.898130
 C         4.231735        -0.479187         0.493137
 C         4.507115        -1.699068         1.250796
 C         3.168460        -0.810934         1.509093
 O         1.924415        -1.253840         0.988171
 H         0.473715         1.218515         0.421837
 H        -0.621014         0.274654        -0.775865
 H        -0.276832        -0.267159         0.852403
 H         1.959031        -2.401275        -1.747622
 H         0.986804        -1.019834        -2.282795
 H         2.515546         0.725130        -1.761387
 H         5.003633         0.177454         0.713132
 H         4.418719        -2.635078         0.758499
 H         5.352225        -1.573173         1.863225
 H         3.120871        -0.229138         2.493867
