19
Iteration:  1040charge 0 multiplicity 1
 C         0.270148         0.206275         0.034495
 C         1.441450        -0.589117        -0.164094
 C         1.620802        -1.255290        -1.514426
 C         2.505954        -0.093731        -1.116014
 O         3.853838        -0.463311        -0.866111
 C         4.331850        -0.447219         0.449371
 C         4.381934        -1.676969         1.317684
 C         3.233023        -0.796777         1.470584
 O         1.995490        -1.308045         0.933549
 H         0.300625         0.734777         0.996978
 H         0.064313         0.860941        -0.764669
 H        -0.682998        -0.459503         0.051197
 H         2.077407        -2.242675        -1.552485
 H         0.930622        -0.948849        -2.287593
 H         2.334808         0.891363        -1.649411
 H         4.959747         0.386567         0.636828
 H         4.217118        -2.695647         0.973015
 H         5.123629        -1.606774         2.121144
 H         3.103986        -0.167423         2.387245
