19
Iteration:   278charge 0 multiplicity 1
 C         0.393254         0.250933         0.261578
 C         1.477253        -0.516016        -0.245955
 C         1.480909        -1.273723        -1.607831
 C         2.530153        -0.198317        -1.189152
 O         3.876840        -0.615684        -0.844619
 C         4.218216        -0.333006         0.466335
 C         4.400200        -1.527685         1.407192
 C         3.121358        -0.745986         1.496949
 O         2.110414        -1.428047         0.788402
 H         0.514749         0.484750         1.413032
 H         0.383183         1.193683        -0.261252
 H        -0.629405        -0.189980         0.001894
 H         1.770823        -2.321445        -1.514384
 H         0.680959        -1.016502        -2.295235
 H         2.400231         0.683031        -1.843391
 H         4.908688         0.578387         0.582427
 H         4.231086        -2.557287         1.009961
 H         5.197370        -1.322885         2.159565
 H         2.734312        -0.137852         2.293639
