19
Iteration:  1376charge 0 multiplicity 1
 C         0.284654         0.255567         0.321433
 C         1.487508        -0.603371        -0.161873
 C         1.604477        -1.125080        -1.572660
 C         2.633578        -0.161417        -1.228603
 O         3.914097        -0.697726        -0.901971
 C         4.190157        -0.314308         0.444439
 C         4.355246        -1.484470         1.415385
 C         3.098470        -0.747153         1.448786
 O         2.027787        -1.516121         0.764979
 H         0.545906         0.788539         1.225212
 H         0.148101         1.109723        -0.463915
 H        -0.450156        -0.462750         0.615402
 H         1.889128        -2.175521        -1.580671
 H         0.843736        -0.667219        -2.223962
 H         2.540251         0.859955        -1.568502
 H         4.835511         0.609317         0.512888
 H         4.303392        -2.355926         0.727075
 H         5.043084        -1.451453         2.271168
 H         2.823007        -0.109541         2.386784
