19
Iteration:  2131charge 0 multiplicity 1
 C         0.209256         0.180801         0.076289
 C         1.453406        -0.570271        -0.157359
 C         1.648523        -1.244564        -1.527675
 C         2.588271        -0.142848        -1.127800
 O         3.933761        -0.383349        -0.879024
 C         4.333239        -0.474478         0.522508
 C         4.286494        -1.732213         1.268346
 C         3.175467        -0.733501         1.466564
 O         2.003906        -1.298560         0.924901
 H         0.210148         0.588599         1.177344
 H         0.123192         1.027624        -0.628054
 H        -0.623999        -0.573218        -0.003793
 H         2.164374        -2.189556        -1.531680
 H         0.851147        -1.066845        -2.298796
 H         2.431231         0.800961        -1.645203
 H         5.158721         0.381771         0.799807
 H         3.846383        -2.517332         0.664368
 H         5.052528        -2.145432         1.863945
 H         2.891782        -0.208042         2.340918
