19
Iteration:  1824
 C         0.243180         0.290422        -0.043349
 C         1.432301        -0.563225        -0.160421
 C         1.675622        -1.391236        -1.504218
 C         2.538555        -0.165125        -1.049046
 O         3.863558        -0.282571        -0.867363
 C         4.243984        -0.388686         0.550647
 C         4.432007        -1.814685         1.186682
 C         3.255641        -0.931912         1.481612
 O         1.927853        -1.213199         0.997005
 H         0.406661         1.196073         0.649542
 H         0.039123         0.739570        -1.096283
 H        -0.573238        -0.112604         0.444315
 H         2.176140        -2.295257        -1.257798
 H         1.009790        -1.375296        -2.303562
 H         2.197135         0.693947        -1.665891
 H         5.017879         0.477636         0.698470
 H         4.306456        -2.423195         0.292301
 H         5.148999        -2.257995         1.876164
 H         3.189159        -0.551299         2.474616
