19
Iteration:  2501
 C         0.500796         0.290623         0.366452
 C         1.582576        -0.557395        -0.237515
 C         1.484049        -1.270714        -1.584259
 C         2.600703        -0.189814        -1.234911
 O         3.905103        -0.594586        -0.897085
 C         4.133579        -0.327527         0.481012
 C         4.337125        -1.475582         1.485296
 C         3.016596        -0.758802         1.442390
 O         2.033668        -1.476050         0.760704
 H         0.335031         0.260061         1.505923
 H         0.728959         1.302695         0.044079
 H        -0.327464        -0.212521        -0.058493
 H         1.678695        -2.420876        -1.700870
 H         0.786210        -0.966930        -2.396847
 H         2.414816         0.632600        -1.960975
 H         4.794358         0.536238         0.442241
 H         4.305524        -2.394746         0.839155
 H         5.156241        -1.385457         2.230560
 H         2.683087        -0.180582         2.332607
