19
Iteration:  2690charge 0 multiplicity 1
 C         0.291300         0.348326         0.090112
 C         1.534800        -0.579228        -0.185578
 C         1.535722        -1.345449        -1.442062
 C         2.552852        -0.145883        -1.203205
 O         3.865327        -0.627974        -0.891389
 C         4.116568        -0.298877         0.487948
 C         4.526446        -1.554472         1.259647
 C         3.198702        -0.873892         1.521259
 O         1.992441        -1.355588         0.911379
 H        -0.723354         0.060965        -0.281519
 H         0.118724         0.530990         1.178155
 H         0.399169         1.357706        -0.469095
 H         2.143819        -2.217124        -1.401086
 H         0.806523        -1.337242        -2.115247
 H         2.629240         0.813782        -1.638473
 H         4.563233         0.804053         0.558122
 H         4.476949        -2.435124         0.675227
 H         5.119660        -1.527467         2.110110
 H         3.104168        -0.352517         2.447212
