19
Iteration:  4777charge 0 multiplicity 1
 C         0.219577         0.294709         0.172278
 C         1.509725        -0.504960        -0.179972
 C         1.531851        -1.100867        -1.634141
 C         2.572128        -0.078400        -1.165992
 O         3.931725        -0.722366        -0.899842
 C         4.197926        -0.507120         0.449792
 C         4.530406        -1.544026         1.415142
 C         3.130792        -0.856588         1.518088
 O         1.957120        -1.368834         0.885475
 H         0.054101         0.781639        -0.787354
 H        -0.458338        -0.516761         0.233822
 H         0.517284         0.881233         1.061524
 H         1.952749        -2.103000        -1.730222
 H         0.714430        -0.897774        -2.386484
 H         2.687104         1.039487        -1.427189
 H         4.659617         0.557735         0.470648
 H         4.555519        -2.566686         0.924892
 H         5.232400        -1.355906         2.261553
 H         2.992409        -0.227239         2.426651
