19
Iteration:  1238
 C         0.169920         0.170470         0.049893
 C         1.456496        -0.630845        -0.132983
 C         1.665099        -1.185170        -1.472666
 C         2.580017        -0.118060        -1.104450
 O         3.942451        -0.487021        -0.912252
 C         4.292261        -0.371949         0.482618
 C         4.355576        -1.733768         1.204042
 C         3.175812        -0.722845         1.476221
 O         1.998335        -1.315517         0.955724
 H         0.077739         1.054249         0.719145
 H         0.023328         0.675218        -0.857771
 H        -0.697936        -0.539291         0.346752
 H         2.257246        -2.121402        -1.444629
 H         0.822304        -1.190095        -2.155340
 H         2.325399         0.965445        -1.418503
 H         4.997028         0.362105         0.773148
 H         3.884391        -2.561476         0.676926
 H         5.191025        -1.986364         1.870999
 H         3.169213        -0.133465         2.483170
