19
Iteration:  4651charge 0 multiplicity 1
 C         0.468052         0.423711         0.095723
 C         1.507894        -0.581816        -0.224293
 C         1.522686        -1.352749        -1.535547
 C         2.583191        -0.157282        -1.228307
 O         3.891795        -0.482504        -0.825544
 C         4.102840        -0.286743         0.578288
 C         4.471721        -1.612723         1.232967
 C         3.179319        -1.013188         1.519998
 O         1.904974        -1.350026         0.901656
 H         0.165743         0.876768        -0.924507
 H        -0.299137        -0.214870         0.698399
 H         0.855236         1.040528         0.970751
 H         1.724613        -2.375806        -1.311117
 H         0.652013        -1.182440        -2.216191
 H         2.352304         0.760456        -1.766647
 H         4.569705         0.679490         0.810957
 H         4.362259        -2.305355         0.354765
 H         5.221673        -1.770792         2.011172
 H         3.056866        -0.642562         2.608979
