19
Iteration:  3293charge 0 multiplicity 1
 C         0.377858         0.279923         0.332085
 C         1.531535        -0.577680        -0.216893
 C         1.625342        -1.199513        -1.595094
 C         2.558997        -0.142991        -1.148726
 O         3.866686        -0.597705        -0.908210
 C         4.163616        -0.422419         0.410466
 C         4.375604        -1.563846         1.466498
 C         3.108035        -0.763403         1.409027
 O         2.008550        -1.439143         0.752538
 H         0.398117         1.376320         0.253986
 H        -0.703196        -0.185105         0.161630
 H         0.459947         0.405251         1.431453
 H         1.972374        -2.250628        -1.719368
 H         0.822268        -0.897322        -2.374769
 H         2.420922         0.864581        -1.672092
 H         4.947650         0.417430         0.655660
 H         4.404774        -2.557693         1.126042
 H         5.041739        -1.279352         2.293625
 H         2.779823        -0.059164         2.155519
