19
Iteration:  2437charge 0 multiplicity 1
 C         0.355459         0.236346         0.098625
 C         1.523955        -0.651363        -0.212798
 C         1.514489        -1.156085        -1.599108
 C         2.595289        -0.056865        -1.145407
 O         3.889031        -0.639617        -0.858756
 C         4.115095        -0.354346         0.514580
 C         4.455696        -1.557113         1.323003
 C         3.155682        -0.866473         1.478632
 O         1.975127        -1.373512         0.962824
 H         0.600351         1.313420         0.425803
 H        -0.134040         0.522990        -0.826998
 H        -0.391210        -0.346518         0.695035
 H         2.014162        -2.143303        -1.824510
 H         0.669532        -0.739342        -2.190801
 H         2.801427         0.894550        -1.635612
 H         4.777464         0.624644         0.728297
 H         4.508263        -2.492571         0.709380
 H         5.278067        -1.558508         2.038633
 H         2.897978        -0.427262         2.450789
