19
Iteration:   257charge 0 multiplicity 1
 C         0.279061         0.336270         0.226438
 C         1.492587        -0.649999        -0.233437
 C         1.584656        -1.317647        -1.513821
 C         2.585708        -0.187654        -1.267448
 O         3.869888        -0.526389        -0.932964
 C         4.228102        -0.396386         0.493187
 C         4.485534        -1.603853         1.407246
 C         3.146502        -0.795510         1.418461
 O         1.976494        -1.330502         0.912404
 H         0.466761         0.577248         1.361989
 H         0.207643         1.270060        -0.320124
 H        -0.750330        -0.104184         0.070521
 H         2.010422        -2.269997        -1.783001
 H         0.824033        -1.014154        -2.219953
 H         2.242934         0.785523        -1.627221
 H         4.668705         0.610859         0.654665
 H         4.571331        -2.543992         0.819775
 H         5.044057        -1.468855         2.359654
 H         2.988034        -0.185390         2.360918
