19
Iteration:  1738charge 0 multiplicity 1
 C         0.208573         0.270186         0.133816
 C         1.537867        -0.569867        -0.186497
 C         1.621734        -1.204562        -1.584855
 C         2.503221        -0.098120        -1.118277
 O         3.885203        -0.490147        -0.900141
 C         4.207988        -0.449572         0.451948
 C         4.408490        -1.675438         1.409731
 C         3.187891        -0.822199         1.443905
 O         2.051938        -1.398041         0.865242
 H         0.455134         1.017285         0.884711
 H        -0.076653         0.833993        -0.811335
 H        -0.701793        -0.334652         0.546233
 H         2.176007        -2.118094        -1.673366
 H         0.961947        -1.023723        -2.349850
 H         2.542155         0.958929        -1.423667
 H         4.790505         0.489178         0.744900
 H         4.082057        -2.645136         1.122804
 H         5.044584        -1.603950         2.287005
 H         3.064996        -0.196944         2.349255
