19
Iteration:  1464
 C         0.408227         0.320826         0.137172
 C         1.518005        -0.561891        -0.165990
 C         1.544668        -1.268747        -1.566057
 C         2.475185        -0.139568        -1.239069
 O         3.859099        -0.529489        -0.809956
 C         4.197287        -0.288734         0.561997
 C         4.414471        -1.582432         1.279421
 C         3.136353        -0.917712         1.474048
 O         2.033012        -1.442487         0.874878
 H         0.872146         1.031436         0.776799
 H        -0.039591         0.952787        -0.828263
 H        -0.545782        -0.160837         0.488858
 H         2.145799        -2.203087        -1.625406
 H         0.717243        -1.127145        -2.301506
 H         2.505732         0.792303        -1.850314
 H         4.764347         0.716488         0.840874
 H         4.403455        -2.462826         0.596668
 H         5.057983        -1.593663         2.179833
 H         2.952776        -0.564997         2.627923
