19
Iteration:   754charge 0 multiplicity 1
 C         0.307884         0.304478         0.148190
 C         1.475284        -0.641346        -0.266209
 C         1.656938        -1.295399        -1.579823
 C         2.506758        -0.129890        -1.224147
 O         3.880664        -0.393252        -0.843193
 C         4.239793        -0.391236         0.539819
 C         4.445547        -1.660136         1.276718
 C         3.173517        -0.861783         1.470017
 O         1.948803        -1.357052         0.935873
 H         0.724627         1.169246         0.527091
 H        -0.364127         0.579558        -0.693799
 H        -0.319931        -0.080507         1.000020
 H         2.167451        -2.241700        -1.328357
 H         0.817102        -1.321106        -2.283935
 H         2.262901         0.893440        -1.591598
 H         4.668559         0.463061         0.869303
 H         4.204353        -2.664385         0.883342
 H         5.233426        -1.808787         2.049427
 H         3.105184        -0.302263         2.427025
