19
Iteration:  2290
 C         0.272488         0.223809         0.104234
 C         1.514509        -0.532891        -0.234968
 C         1.503472        -1.135244        -1.572257
 C         2.553134        -0.195779        -1.199563
 O         3.896833        -0.586659        -0.840551
 C         4.216460        -0.373637         0.512617
 C         4.435098        -1.605575         1.391516
 C         3.204242        -0.818600         1.487599
 O         2.027383        -1.361865         0.864821
 H         0.345537         0.617988         1.109196
 H         0.058288         1.093971        -0.614923
 H        -0.606998        -0.468484         0.180796
 H         1.838145        -2.176386        -1.560705
 H         0.657325        -0.908594        -2.206900
 H         2.623037         0.839833        -1.668701
 H         4.688546         0.516285         0.649028
 H         4.384609        -2.530819         0.690492
 H         5.165117        -1.573602         2.283533
 H         3.108836        -0.406031         2.597705
