19
Iteration:  2628charge 0 multiplicity 1
 C         0.278382         0.209053         0.147745
 C         1.534777        -0.512157        -0.161473
 C         1.645157        -1.356589        -1.452243
 C         2.615014        -0.087749        -1.228280
 O         3.848544        -0.474476        -0.948779
 C         4.164821        -0.443494         0.427822
 C         4.328208        -1.665869         1.313373
 C         3.182548        -0.696037         1.489856
 O         2.006554        -1.331302         0.943911
 H        -0.456986        -0.543182         0.270431
 H         0.396016         0.749494         1.109428
 H         0.145873         0.958743        -0.613698
 H         2.130647        -2.391841        -1.266752
 H         0.884699        -1.312130        -2.244195
 H         2.406661         0.848645        -1.773112
 H         4.951487         0.252477         0.499539
 H         4.095688        -2.653985         0.898634
 H         5.124376        -1.732171         2.084927
 H         3.091224        -0.068307         2.389358
