19
Iteration:  2480
 C         0.325675         0.356993         0.249763
 C         1.447508        -0.577700        -0.218708
 C         1.566951        -1.189315        -1.569259
 C         2.588146        -0.156653        -1.202744
 O         3.885505        -0.701651        -0.837228
 C         4.150122        -0.336849         0.487442
 C         4.434347        -1.501618         1.415258
 C         3.133321        -0.792735         1.456777
 O         2.044709        -1.495090         0.719687
 H         0.637089         0.572039         1.341526
 H         0.532443         1.334571        -0.120593
 H        -0.643798        -0.132892         0.247084
 H         2.023201        -2.253444        -1.577191
 H         0.723339        -1.083710        -2.280017
 H         2.515847         0.844403        -1.663977
 H         4.458617         0.748047         0.460135
 H         4.609590        -2.578394         1.124813
 H         5.060414        -1.175227         2.276416
 H         2.885998        -0.191554         2.360972
