19
Iteration:   977
 C         0.185406         0.280030         0.070578
 C         1.403898        -0.579488        -0.223981
 C         1.606225        -1.410998        -1.506719
 C         2.479164        -0.172761        -1.211736
 O         3.945744        -0.346287        -0.800863
 C         4.265022        -0.424684         0.552262
 C         4.487488        -1.749169         1.182724
 C         3.210797        -0.944349         1.511794
 O         1.970283        -1.147161         0.943181
 H         0.510314         1.200889         0.691149
 H        -0.183316         0.728106        -0.804597
 H        -0.537357        -0.371762         0.478761
 H         2.221814        -2.265788        -1.464356
 H         0.979089        -1.360710        -2.336887
 H         2.404289         0.812386        -1.726555
 H         4.876754         0.438461         1.092436
 H         4.478902        -2.579750         0.534881
 H         5.162196        -1.605196         1.964837
 H         3.211417        -0.501337         2.517520
