19
Iteration:  1049
 C         0.229004         0.230018         0.105861
 C         1.464101        -0.647375        -0.203361
 C         1.538648        -1.222075        -1.549626
 C         2.526660        -0.100450        -1.184080
 O         3.853139        -0.478406        -0.824116
 C         4.304397        -0.429515         0.473240
 C         4.467680        -1.714397         1.392623
 C         3.203744        -0.833941         1.468003
 O         2.025927        -1.275791         0.906933
 H         0.365819         0.889399         0.874569
 H         0.087208         0.971194        -0.744351
 H        -0.756897        -0.440197         0.190417
 H         2.217280        -2.109937        -1.640166
 H         0.887119        -1.117960        -2.459529
 H         2.338793         0.855706        -1.683375
 H         4.834491         0.373512         0.652458
 H         4.360334        -2.660839         0.834145
 H         5.187209        -1.509193         2.224254
 H         3.042721         0.002167         2.121112
