19
Iteration:  3381
 C         0.279020         0.337742         0.186649
 C         1.437422        -0.590656        -0.185598
 C         1.632837        -1.280166        -1.527039
 C         2.568703        -0.146137        -1.106549
 O         3.989120        -0.433982        -0.834434
 C         4.232306        -0.345738         0.537034
 C         4.413753        -1.721442         1.231912
 C         3.119255        -0.863816         1.371593
 O         1.917159        -1.365964         0.868297
 H        -0.308108         0.300784        -0.702043
 H        -0.233404        -0.009067         1.106732
 H         0.665374         1.292072         0.471129
 H         1.973314        -2.405503        -1.390276
 H         1.041153        -1.119522        -2.447090
 H         2.430983         0.760096        -1.768644
 H         4.827327         0.689437         0.681369
 H         4.316766        -2.635119         0.648823
 H         4.958829        -1.740150         2.108796
 H         3.066850        -0.434231         2.374140
