19
Iteration:  2838
 C         0.278229         0.378424         0.011541
 C         1.502492        -0.576617        -0.087032
 C         1.655102        -1.246068        -1.475922
 C         2.530563        -0.177903        -1.128537
 O         3.841230        -0.601813        -0.863099
 C         4.144249        -0.320981         0.448446
 C         4.496122        -1.546271         1.268973
 C         3.176281        -0.855396         1.473336
 O         1.982950        -1.464062         0.915917
 H         0.132383         0.424228         1.116594
 H         0.625033         1.410599        -0.047837
 H        -0.563837         0.216660        -0.638487
 H         1.964722        -2.348032        -1.368408
 H         0.787462        -0.977188        -2.231308
 H         2.439617         0.808217        -1.640198
 H         4.722711         0.510908         0.454396
 H         4.451752        -2.431743         0.644231
 H         5.262431        -1.529417         2.021054
 H         3.031488        -0.326808         2.438629
