19
Iteration:    63
 C         0.362801         0.346227         0.297999
 C         1.467510        -0.684599        -0.271737
 C         1.493136        -1.233962        -1.690175
 C         2.530490        -0.240581        -1.257978
 O         3.804096        -0.703018        -0.806110
 C         4.215825        -0.309674         0.495377
 C         4.477710        -1.380965         1.382762
 C         3.131200        -0.829649         1.582647
 O         2.101968        -1.412045         0.793050
 H         0.592880         0.476165         1.313779
 H         0.621123         1.496946        -0.197908
 H        -0.681177         0.178592         0.115004
 H         1.940039        -2.212359        -1.917027
 H         0.762787        -0.871002        -2.408071
 H         2.550504         0.794129        -1.665649
 H         4.712881         0.625445         0.421564
 H         4.421861        -2.470840         1.035800
 H         5.199193        -1.342035         2.232623
 H         2.677516        -0.275129         2.529535
