19
Iteration:   106
 C         0.336173         0.328331         0.171247
 C         1.455580        -0.599889        -0.181841
 C         1.525620        -1.284823        -1.585540
 C         2.529062        -0.154403        -1.142674
 O         3.919018        -0.609162        -0.919317
 C         4.345443        -0.321205         0.435870
 C         4.492895        -1.446380         1.369962
 C         3.140069        -0.942230         1.501578
 O         1.902122        -1.409662         0.881265
 H         0.569390         0.885235         1.038042
 H         0.152205         1.095116        -0.708440
 H        -0.578372        -0.197053         0.355962
 H         1.921294        -2.259222        -1.842883
 H         0.616956        -1.043970        -2.153666
 H         2.430869         0.861417        -1.607135
 H         4.650559         0.672327         0.713172
 H         4.645403        -2.503065         0.995412
 H         5.184453        -1.248295         2.242513
 H         2.811122        -0.348802         2.469391
