19
Iteration:  3231
 C         0.405764         0.357326         0.216793
 C         1.457630        -0.670045        -0.152822
 C         1.585103        -1.203442        -1.626778
 C         2.542512        -0.136395        -1.161311
 O         3.880615        -0.610902        -0.889718
 C         4.167623        -0.313220         0.507921
 C         4.501267        -1.489391         1.317998
 C         3.139157        -0.918012         1.445995
 O         1.896416        -1.464248         0.879698
 H         0.835463         1.349365         0.078316
 H        -0.501428         0.528680        -0.495691
 H         0.213582         0.112228         1.278910
 H         2.164528        -2.168842        -1.572181
 H         0.720215        -0.978220        -2.348576
 H         2.481954         0.895480        -1.534747
 H         4.615511         0.604713         0.690115
 H         4.715027        -2.274611         0.634709
 H         5.164915        -1.534913         2.173746
 H         3.001515        -0.291200         2.400705
