19
Iteration:  2347
 C         0.324920         0.300354         0.027102
 C         1.467814        -0.634707        -0.178350
 C         1.685633        -1.358905        -1.503716
 C         2.547426        -0.142039        -1.129449
 O         3.871523        -0.381469        -0.840834
 C         4.212085        -0.381585         0.522376
 C         4.428273        -1.695123         1.204623
 C         3.170038        -0.849180         1.455608
 O         1.899623        -1.285582         0.993791
 H         0.531889         1.021325         0.914186
 H         0.158458         0.953018        -0.830388
 H        -0.589553        -0.177678         0.139869
 H         2.318340        -2.264024        -1.518683
 H         0.774373        -1.315142        -2.108906
 H         2.418410         0.747810        -1.732509
 H         4.857037         0.378341         0.814466
 H         4.124835        -2.451147         0.540693
 H         5.273056        -1.971869         1.800168
 H         3.195383        -0.532321         2.482103
