19
Iteration:   763charge 0 multiplicity 1
 C         0.327046         0.361866         0.213341
 C         1.475874        -0.636284        -0.252829
 C         1.625764        -1.390575        -1.578778
 C         2.501594        -0.117508        -1.220230
 O         3.911413        -0.390934        -0.786075
 C         4.197781        -0.420253         0.499319
 C         4.484595        -1.661557         1.279275
 C         3.117087        -0.862700         1.476188
 O         1.967763        -1.345517         0.887312
 H         0.694278         1.191695         0.696780
 H        -0.369550         0.538459        -0.716774
 H        -0.278928        -0.241844         0.818342
 H         2.112179        -2.341730        -1.748923
 H         0.859020        -1.145245        -2.254066
 H         2.473146         0.833601        -1.755131
 H         4.765856         0.511357         0.864765
 H         4.264322        -2.563060         0.734191
 H         5.196035        -1.458696         2.028401
 H         2.899501        -0.241834         2.438814
