19
Iteration:  1501charge 0 multiplicity 1
 C         0.269747         0.337248         0.121400
 C         1.431704        -0.543401        -0.191396
 C         1.629313        -1.331426        -1.462953
 C         2.537073        -0.187939        -1.180621
 O         4.035378        -0.348860        -0.846421
 C         4.269717        -0.392385         0.486512
 C         4.430712        -1.657157         1.185509
 C         3.140520        -0.886475         1.441914
 O         1.860809        -1.384181         0.947226
 H         0.397454         1.005715         1.030627
 H         0.021366         0.912784        -0.731464
 H        -0.591329        -0.374372         0.502546
 H         1.984508        -2.338436        -1.331545
 H         1.017853        -1.301413        -2.365649
 H         2.444334         0.706974        -1.843010
 H         4.819651         0.364889         0.854921
 H         4.478095        -2.610945         0.626493
 H         5.055838        -1.759227         2.069028
 H         2.967768        -0.357614         2.491002
