19
Iteration:  2084charge 0 multiplicity 1
 C         0.195843         0.151781         0.036294
 C         1.498188        -0.546036        -0.190806
 C         1.656336        -1.274509        -1.567325
 C         2.531275        -0.006506        -1.108079
 O         3.951014        -0.479748        -0.847718
 C         4.308176        -0.420556         0.508294
 C         4.393465        -1.785144         1.194708
 C         3.235284        -0.873780         1.488939
 O         1.852223        -1.172322         1.016753
 H         0.245991         1.004806         0.790477
 H        -0.165507         0.561873        -0.995935
 H        -0.411836        -0.619624         0.452739
 H         2.151337        -2.264824        -1.569465
 H         0.939374        -1.027427        -2.311973
 H         2.423741         1.004442        -1.583193
 H         5.036313         0.484254         0.799058
 H         4.334203        -2.716683         0.555320
 H         5.091429        -2.019169         2.121520
 H         3.117773        -0.333809         2.418234
