19
Iteration:  4537charge 0 multiplicity 1
 C         0.281015         0.312148         0.276282
 C         1.491171        -0.555327        -0.229619
 C         1.590883        -1.148389        -1.542281
 C         2.556872        -0.140628        -1.162111
 O         3.834110        -0.670364        -0.877861
 C         4.241985        -0.422053         0.460635
 C         4.413879        -1.549796         1.388749
 C         3.128584        -0.818516         1.457190
 O         2.038443        -1.425109         0.756363
 H         0.018997         1.040645        -0.462273
 H        -0.605033        -0.183453         0.582703
 H         0.671881         0.889271         1.135552
 H         1.933807        -2.153431        -1.539328
 H         1.043551        -0.814443        -2.425979
 H         2.665859         0.864567        -1.607274
 H         4.872368         0.523969         0.570814
 H         4.489583        -2.563558         1.027246
 H         4.985899        -1.364858         2.263132
 H         2.946169        -0.276584         2.326154
