19
Iteration:  2777charge 0 multiplicity 1
 C         0.315658         0.307784         0.388444
 C         1.495309        -0.576535        -0.181867
 C         1.545138        -1.228449        -1.615731
 C         2.582498        -0.189343        -1.248864
 O         3.947406        -0.705953        -0.903715
 C         4.185824        -0.415147         0.419076
 C         4.364184        -1.454217         1.433560
 C         3.063102        -0.720820         1.437485
 O         2.085627        -1.417524         0.776280
 H        -0.060904        -0.341169         1.238178
 H         0.800335         1.299007         0.554511
 H        -0.632912         0.607100        -0.155022
 H         2.000515        -2.196743        -1.450995
 H         0.858549        -1.178621        -2.327458
 H         2.505842         0.787160        -1.654327
 H         4.784203         0.570458         0.638111
 H         4.326639        -2.356391         0.893483
 H         4.986472        -1.387415         2.310646
 H         2.726293         0.057086         2.117363
