19
Iteration:  3722charge 0 multiplicity 1
 C         0.366189         0.386990         0.091409
 C         1.482356        -0.599923        -0.157194
 C         1.602927        -1.149944        -1.511154
 C         2.550051        -0.089145        -1.106253
 O         3.847871        -0.544780        -0.832915
 C         4.199284        -0.397169         0.483927
 C         4.397826        -1.631019         1.252236
 C         3.093365        -0.894996         1.549951
 O         2.041900        -1.498671         0.831734
 H        -0.060865         0.660572        -0.848433
 H        -0.511108        -0.063394         0.611600
 H         0.778758         1.277395         0.526800
 H         2.042292        -2.132441        -1.602354
 H         0.995497        -1.089741        -2.439326
 H         2.414508         0.872243        -1.639151
 H         4.834286         0.592238         0.729427
 H         4.272799        -2.580346         0.703473
 H         5.264132        -1.504324         1.989298
 H         2.867127        -0.268523         2.476801
