19
Iteration:  3258charge 0 multiplicity 1
 C         0.336266         0.355853         0.307979
 C         1.523281        -0.587270        -0.208781
 C         1.475118        -1.219231        -1.584887
 C         2.572498        -0.245387        -1.211014
 O         3.915161        -0.577904        -0.836461
 C         4.152793        -0.332872         0.521860
 C         4.424554        -1.529759         1.374066
 C         3.115124        -0.789162         1.486236
 O         2.071934        -1.477819         0.702848
 H         0.522151         1.423472         0.059412
 H        -0.565133         0.151701        -0.213609
 H         0.227274         0.027656         1.316452
 H         1.568170        -2.262149        -1.656734
 H         0.793863        -0.646918        -2.209621
 H         2.571549         0.643645        -1.860029
 H         4.926246         0.513467         0.827233
 H         4.394882        -2.491715         0.808358
 H         5.185610        -1.447696         2.184441
 H         2.828571        -0.279208         2.370841
