19
Iteration:  1003charge 0 multiplicity 1
 C         0.249658         0.158175         0.070566
 C         1.484384        -0.552371        -0.174187
 C         1.718217        -1.314168        -1.473017
 C         2.535601        -0.107706        -1.173405
 O         3.915269        -0.436096        -0.875672
 C         4.264505        -0.367370         0.457255
 C         4.375978        -1.723417         1.191527
 C         3.198652        -0.848838         1.456096
 O         1.879391        -1.220284         1.050580
 H         0.490223         0.768839         0.948596
 H         0.076220         1.036563        -0.685603
 H        -0.559655        -0.614210         0.155754
 H         2.121733        -2.355658        -1.367312
 H         0.974867        -1.133598        -2.309069
 H         2.503706         0.717138        -1.886064
 H         4.843608         0.488950         0.878271
 H         3.977218        -2.477826         0.472227
 H         5.096427        -1.912195         2.028803
 H         3.274191        -0.364504         2.433623
