19
Iteration:  4029
 C         0.284103         0.263393         0.254686
 C         1.424478        -0.603684        -0.218674
 C         1.572738        -1.111393        -1.656217
 C         2.605179        -0.016698        -1.074923
 O         3.847842        -0.743401        -0.894726
 C         4.265765        -0.413391         0.434874
 C         4.442195        -1.617216         1.455077
 C         3.143995        -0.744481         1.406799
 O         2.011119        -1.407366         0.841964
 H         0.008333         1.119862        -0.367531
 H        -0.683309        -0.393518         0.138338
 H         0.430068         0.666215         1.276672
 H         2.081677        -2.007779        -1.919246
 H         0.854251        -1.095521        -2.479154
 H         2.591926         1.036544        -1.498318
 H         4.938422         0.481616         0.577292
 H         4.543671        -2.593793         1.101519
 H         4.973313        -1.249386         2.287013
 H         3.094600        -0.066859         2.225802
