19
Iteration:   926charge 0 multiplicity 1
 C         0.364653         0.287705         0.125600
 C         1.445713        -0.695516        -0.227675
 C         1.669270        -1.324332        -1.534826
 C         2.579815        -0.093909        -1.151882
 O         3.882060        -0.412415        -0.911855
 C         4.170971        -0.321782         0.509960
 C         4.432168        -1.684600         1.260069
 C         3.166362        -0.829855         1.517419
 O         1.921495        -1.373602         0.945780
 H         0.888865         1.239982         0.540403
 H        -0.386605         0.458625        -0.770873
 H        -0.299701        -0.033378         0.957284
 H         2.158138        -2.295734        -1.513065
 H         0.815972        -1.200467        -2.204602
 H         2.402120         0.861733        -1.653604
 H         4.784809         0.618229         0.774825
 H         4.123077        -2.502445         0.610554
 H         5.173545        -1.846287         2.043087
 H         2.973814        -0.202033         2.409211
