19
Iteration:  3135charge 0 multiplicity 1
 C         0.266320         0.246284         0.196595
 C         1.488516        -0.599785        -0.261017
 C         1.660300        -1.259761        -1.548940
 C         2.508309        -0.088101        -1.185982
 O         3.876919        -0.551077        -0.895535
 C         4.221246        -0.460113         0.395148
 C         4.362836        -1.596449         1.294860
 C         3.176472        -0.785368         1.500514
 O         2.024567        -1.314345         0.963894
 H         0.290499         0.294330         1.352859
 H         0.324479         1.210854        -0.140508
 H        -0.683605        -0.269969        -0.104762
 H         2.367526        -2.038791        -1.604281
 H         0.693337        -1.183240        -2.113527
 H         2.574045         0.850887        -1.692624
 H         5.018847         0.348473         0.676267
 H         4.172867        -2.634033         0.964343
 H         5.043198        -1.542883         2.204795
 H         3.005601        -0.094923         2.384903
