19
Iteration:  2123charge 0 multiplicity 1
 C         0.167458         0.189088         0.100314
 C         1.500841        -0.506886        -0.206003
 C         1.676124        -1.251995        -1.518766
 C         2.530739        -0.075944        -1.124798
 O         3.956670        -0.405720        -0.911829
 C         4.308502        -0.462743         0.546946
 C         4.325464        -1.795606         1.290730
 C         3.197856        -0.772197         1.466506
 O         2.004092        -1.279806         0.940191
 H        -0.061485         0.578466         1.067446
 H        -0.062747         0.851179        -0.666805
 H        -0.678797        -0.605751        -0.053773
 H         2.087427        -2.273512        -1.520392
 H         0.959994        -1.208679        -2.356093
 H         2.307085         0.769646        -1.752228
 H         5.052608         0.236262         0.933756
 H         3.785116        -2.588764         0.855536
 H         5.218296        -2.069362         1.756232
 H         2.984500        -0.019643         2.347409
