19
Iteration:  4082
 C         0.404237         0.299464         0.258910
 C         1.509555        -0.529516        -0.211915
 C         1.537893        -1.202482        -1.562932
 C         2.556717        -0.153193        -1.219845
 O         3.879382        -0.621838        -0.814854
 C         4.237243        -0.350356         0.534492
 C         4.360310        -1.573292         1.382553
 C         3.126313        -0.812682         1.455634
 O         2.028661        -1.463889         0.694252
 H        -0.103171         0.864287        -0.546071
 H        -0.482292        -0.129501         0.973022
 H         0.706236         1.051759         1.050738
 H         1.703378        -2.223323        -1.702341
 H         0.791500        -0.985181        -2.304134
 H         2.487470         0.907284        -1.627456
 H         4.808041         0.646979         0.760464
 H         4.285775        -2.480027         0.846442
 H         4.989430        -1.701204         2.202055
 H         2.941165        -0.149654         2.346175
