19
Iteration:  1963charge 0 multiplicity 1
 C         0.423658         0.316065         0.338366
 C         1.484755        -0.567008        -0.250745
 C         1.596747        -1.131346        -1.706834
 C         2.536989        -0.128153        -1.210540
 O         3.836492        -0.744503        -0.874328
 C         4.164493        -0.344242         0.491340
 C         4.433490        -1.416835         1.467893
 C         3.066650        -0.804629         1.454845
 O         2.020708        -1.568909         0.774976
 H         0.599638         0.579618         1.373810
 H         0.192779         1.220693        -0.287900
 H        -0.452964        -0.321176         0.445941
 H         1.894670        -2.151039        -1.649972
 H         0.932912        -0.723988        -2.480815
 H         2.665338         0.917134        -1.435105
 H         4.726961         0.661938         0.633120
 H         4.674298        -2.451758         1.280441
 H         5.175455        -1.102233         2.159975
 H         2.829187        -0.143910         2.248550
