19
Iteration:  1285
 C         0.200429         0.284801         0.137309
 C         1.462331        -0.590440        -0.219366
 C         1.634299        -1.399405        -1.528267
 C         2.599326        -0.124217        -1.223235
 O         3.972052        -0.334819        -0.863122
 C         4.197067        -0.377306         0.497461
 C         4.450348        -1.716857         1.192439
 C         3.164010        -0.919638         1.520925
 O         1.903007        -1.270392         0.985278
 H         0.518620         1.179792         0.777660
 H        -0.258644         0.785496        -0.689425
 H        -0.394755        -0.284445         0.698175
 H         2.165515        -2.361999        -1.453820
 H         0.928434        -1.297327        -2.375266
 H         2.447589         0.831124        -1.759518
 H         4.859853         0.472978         0.935046
 H         4.298492        -2.664030         0.644884
 H         5.167912        -1.784245         2.007742
 H         3.209530        -0.495004         2.453807
