19
Iteration:  1648charge 0 multiplicity 1
 C         0.476999         0.369959         0.337608
 C         1.555032        -0.589914        -0.159642
 C         1.570076        -1.187710        -1.618573
 C         2.562416        -0.189703        -1.208471
 O         3.948283        -0.525097        -0.931901
 C         4.054435        -0.387351         0.491824
 C         4.369683        -1.451437         1.469316
 C         3.011652        -0.888655         1.435600
 O         2.024127        -1.622339         0.762291
 H         0.929857         1.029826         1.189442
 H         0.314481         1.169810        -0.533076
 H        -0.523476         0.061077         0.515172
 H         1.772238        -2.234348        -1.803685
 H         0.858269        -0.860068        -2.415807
 H         2.454750         0.827943        -1.603124
 H         4.444258         0.766560         0.701135
 H         4.703089        -2.359268         0.971238
 H         5.108948        -1.246842         2.232461
 H         2.616022        -0.340946         2.203163
