19
Iteration:  2113charge 0 multiplicity 1
 C         0.081350         0.162962         0.079949
 C         1.511022        -0.489382        -0.183310
 C         1.703250        -1.274325        -1.505510
 C         2.556845        -0.006665        -1.198655
 O         3.958980        -0.405271        -0.885568
 C         4.218284        -0.498138         0.464221
 C         4.375476        -1.861019         1.289439
 C         3.231382        -0.796586         1.532885
 O         1.981831        -1.232996         0.932973
 H         0.043663         0.692202         0.973047
 H        -0.209387         0.863623        -0.661548
 H        -0.640410        -0.707033         0.033426
 H         2.152608        -2.246491        -1.252119
 H         0.995052        -1.100188        -2.310202
 H         2.508721         0.957623        -1.707137
 H         4.890745         0.186209         0.745108
 H         4.045025        -2.821457         0.921125
 H         5.161418        -1.784209         2.017515
 H         3.311292        -0.085420         2.454124
