19
Iteration:  2784
 C         0.332932         0.302310         0.388554
 C         1.458682        -0.569915        -0.212981
 C         1.559844        -1.231173        -1.632695
 C         2.583568        -0.230360        -1.246024
 O         3.893740        -0.669102        -0.887273
 C         4.268327        -0.375938         0.458323
 C         4.382783        -1.478950         1.411772
 C         3.097236        -0.733083         1.445120
 O         2.042958        -1.432716         0.807534
 H        -0.102826         0.015924         1.371577
 H         0.629034         1.298377         0.621605
 H        -0.548391         0.400625        -0.243536
 H         1.978836        -2.257113        -1.643733
 H         0.882990        -1.089565        -2.575603
 H         2.592996         0.772874        -1.701376
 H         4.735960         0.520189         0.441870
 H         4.325119        -2.472652         0.973192
 H         4.905973        -1.309848         2.318300
 H         2.855626         0.119067         2.083805
