19
Iteration:  4195
 C         0.293670         0.181513         0.207593
 C         1.537341        -0.550398        -0.191805
 C         1.575439        -1.155943        -1.569908
 C         2.602261        -0.058730        -1.155196
 O         3.915347        -0.532261        -0.980327
 C         4.230556        -0.457099         0.418002
 C         4.344382        -1.697012         1.409569
 C         3.143907        -0.760866         1.487544
 O         1.958988        -1.347189         0.940919
 H         0.090636         1.050508        -0.527506
 H        -0.554827        -0.617157        -0.030368
 H         0.416812         0.546369         1.267985
 H         2.152268        -2.139969        -1.702514
 H         0.936791        -0.871488        -2.394818
 H         2.610050         0.873827        -1.661805
 H         4.979184         0.177008         0.705225
 H         3.971778        -2.566045         0.892072
 H         5.187908        -1.498059         2.156971
 H         2.928143        -0.324956         2.375398
