19
Iteration:  1658charge 0 multiplicity 1
 C         0.531536         0.435293         0.332612
 C         1.538394        -0.634918        -0.192193
 C         1.517168        -1.193298        -1.651520
 C         2.574684        -0.170214        -1.196819
 O         3.953652        -0.582255        -0.897827
 C         4.012501        -0.316292         0.492156
 C         4.443550        -1.444023         1.464475
 C         3.010206        -0.898133         1.458664
 O         2.015767        -1.626693         0.680014
 H         0.747591         1.007919         1.369728
 H         0.248887         1.212804        -0.493557
 H        -0.269008        -0.210869         0.555189
 H         1.914866        -2.203805        -1.451605
 H         0.632178        -1.003658        -2.344275
 H         2.411113         0.874257        -1.433048
 H         4.415229         0.728119         0.936803
 H         4.522907        -2.464490         1.037885
 H         5.070855        -1.087113         2.303284
 H         2.700673        -0.293034         2.221734
