19
Iteration:   188
 C         0.221987         0.282839         0.070354
 C         1.455278        -0.526139        -0.247757
 C         1.649655        -1.342414        -1.539423
 C         2.531012        -0.193317        -1.162675
 O         3.841776        -0.406443        -0.892424
 C         4.239553        -0.453640         0.522566
 C         4.515804        -1.718186         1.248022
 C         3.175570        -0.816994         1.534649
 O         1.954399        -1.248921         1.005893
 H         0.535491         1.352448         0.478323
 H        -0.516468         0.282950        -0.762170
 H        -0.338970        -0.373304         0.877735
 H         1.992553        -2.406783        -1.688799
 H         0.935721        -1.086084        -2.347439
 H         2.590576         0.856963        -1.586743
 H         5.092367         0.320787         0.690182
 H         4.430885        -2.698086         0.790270
 H         5.350176        -1.605943         1.917517
 H         3.156585        -0.360705         2.430746
