19
Iteration:  3154
 C         0.300699         0.202308         0.248174
 C         1.519864        -0.484689        -0.184222
 C         1.631081        -1.284296        -1.526901
 C         2.575870        -0.142046        -1.214861
 O         3.890669        -0.501043        -0.967290
 C         4.193922        -0.397189         0.479550
 C         4.386725        -1.699260         1.389575
 C         3.178840        -0.766935         1.436836
 O         1.971305        -1.290177         0.888504
 H         0.186949         0.353356         1.342882
 H         0.064486         1.093928        -0.387859
 H        -0.617751        -0.398773         0.164742
 H         2.013849        -2.299522        -1.313323
 H         0.862186        -1.158366        -2.468379
 H         2.279358         0.777097        -1.826884
 H         4.825660         0.428471         0.590372
 H         4.389735        -2.657930         0.934527
 H         5.258050        -1.894985         2.021335
 H         2.944070        -0.137060         2.381960
