19
Iteration:   557
 C         0.444765         0.292523         0.335993
 C         1.445481        -0.628802        -0.246907
 C         1.532792        -1.169466        -1.654208
 C         2.527266        -0.196573        -1.243938
 O         3.871373        -0.610150        -0.837044
 C         4.169174        -0.374348         0.522538
 C         4.422069        -1.438939         1.447886
 C         3.084408        -0.821406         1.487875
 O         2.062699        -1.510897         0.726810
 H         1.065379         1.134596         0.625072
 H        -0.173087         0.897116        -0.503075
 H        -0.200407        -0.180400         1.146303
 H         1.890131        -2.172071        -1.893406
 H         0.758902        -0.782475        -2.313988
 H         2.588532         0.810274        -1.737259
 H         4.477847         0.604198         0.612072
 H         4.575660        -2.473765         1.149076
 H         5.073438        -1.260675         2.315536
 H         2.924799        -0.036534         2.286921
