19
Iteration:  4871
 C         0.431935         0.466833         0.182339
 C         1.477628        -0.604718        -0.231775
 C         1.520416        -1.221538        -1.605570
 C         2.571968        -0.223320        -1.173346
 O         3.909906        -0.604124        -0.822976
 C         4.154093        -0.302094         0.551536
 C         4.459992        -1.552414         1.332176
 C         3.131164        -0.896494         1.484529
 O         1.945438        -1.477392         0.820101
 H        -0.003151         0.874204        -0.820984
 H        -0.417839         0.037475         0.788498
 H         1.096309         1.131827         0.808953
 H         1.835816        -2.255158        -1.752780
 H         0.736156        -0.868396        -2.358792
 H         2.467327         0.765007        -1.588798
 H         4.709611         0.620206         0.796951
 H         4.613772        -2.406479         0.672366
 H         4.953980        -1.419423         2.281899
 H         2.794193        -0.605397         2.458797
