19
Iteration:    52charge 0 multiplicity 1
 C         0.467341         0.266098         0.288355
 C         1.411700        -0.648653        -0.288112
 C         1.476394        -1.257868        -1.668278
 C         2.545330        -0.207737        -1.216558
 O         3.815932        -0.666256        -0.821533
 C         4.217058        -0.277265         0.493782
 C         4.462584        -1.499958         1.450184
 C         3.116308        -0.736403         1.466565
 O         2.042715        -1.392938         0.780500
 H         0.630932         0.255072         1.331137
 H         0.668747         1.436130        -0.129952
 H        -0.576427         0.014046         0.205472
 H         1.735546        -2.334176        -1.746692
 H         0.719829        -0.934505        -2.375635
 H         2.478950         0.812606        -1.660268
 H         4.983061         0.452427         0.597232
 H         4.779541        -2.501385         1.004730
 H         5.033998        -1.036865         2.281531
 H         2.881082        -0.309683         2.550512
