19
Iteration:  4360charge 0 multiplicity 1
 C         0.278341         0.307587         0.217010
 C         1.511615        -0.559315        -0.193690
 C         1.451035        -1.139002        -1.666109
 C         2.576396        -0.192089        -1.138706
 O         3.903523        -0.687583        -0.855374
 C         4.267940        -0.280445         0.561577
 C         4.460698        -1.567930         1.326779
 C         3.171955        -0.832989         1.515112
 O         1.972541        -1.431162         0.811285
 H        -0.132485         1.067588        -0.550954
 H        -0.570416        -0.438985         0.353587
 H         0.515911         0.770845         1.217415
 H         1.887115        -2.157492        -1.775422
 H         0.964238        -0.521400        -2.397384
 H         2.799147         0.676038        -1.735406
 H         4.696671         0.656105         0.598627
 H         4.482888        -2.437449         0.637282
 H         5.134225        -1.573204         2.205958
 H         3.028123        -0.406153         2.408500
