19
Iteration:  3664
 C         0.160573         0.210492         0.213946
 C         1.518479        -0.467618        -0.145905
 C         1.670051        -1.190327        -1.510992
 C         2.680130        -0.055122        -1.217054
 O         3.956065        -0.601393        -0.943426
 C         4.243260        -0.439487         0.464902
 C         4.338781        -1.711745         1.316003
 C         3.119138        -0.832280         1.439984
 O         1.954275        -1.307006         0.896805
 H        -0.097498         1.225624        -0.258809
 H        -0.691589        -0.465981         0.256916
 H         0.120772         0.413404         1.316498
 H         2.324713        -2.057546        -1.365296
 H         0.973933        -1.058839        -2.252452
 H         2.637765         0.914326        -1.639308
 H         4.661705         0.581174         0.544838
 H         4.082416        -2.684652         0.784211
 H         5.141198        -1.761731         2.062516
 H         2.959795        -0.164575         2.281222
