19
Iteration:  3050
 C         0.473516         0.353154         0.330054
 C         1.387007        -0.654140        -0.229310
 C         1.588448        -1.275587        -1.592089
 C         2.609007        -0.206174        -1.243199
 O         3.895549        -0.602723        -0.836941
 C         4.175894        -0.277268         0.508790
 C         4.405932        -1.514773         1.351503
 C         3.057584        -0.785854         1.411233
 O         1.992780        -1.464629         0.796650
 H         1.025703         1.119319         0.944221
 H        -0.072009         0.934132        -0.448625
 H        -0.413861        -0.082171         0.866959
 H         1.877082        -2.243959        -1.698596
 H         0.894848        -1.072913        -2.330544
 H         2.358202         0.792394        -1.500661
 H         4.711493         0.724011         0.727860
 H         4.479376        -2.401515         0.721350
 H         5.058969        -1.455661         2.261233
 H         2.936304        -0.344114         2.371492
