19
Iteration:   776charge 0 multiplicity 1
 C         0.354407         0.294916         0.214760
 C         1.496901        -0.551693        -0.210701
 C         1.577339        -1.325440        -1.576669
 C         2.577952        -0.242505        -1.165992
 O         3.887266        -0.418469        -0.889470
 C         4.161175        -0.313778         0.575954
 C         4.406020        -1.618486         1.303208
 C         3.123292        -0.851246         1.493778
 O         1.992634        -1.389171         0.809910
 H         0.722829         1.017982         0.862321
 H        -0.116408         0.818529        -0.602516
 H        -0.420105        -0.226163         0.848090
 H         1.953234        -2.384253        -1.600848
 H         0.929421        -0.978604        -2.406173
 H         2.384214         0.634951        -1.849668
 H         4.805539         0.437244         0.773350
 H         4.627041        -2.562967         0.771721
 H         5.187135        -1.599090         2.116887
 H         2.920606        -0.360301         2.464741
