19
Iteration:  2420
 C         0.299886         0.269534         0.128870
 C         1.532456        -0.550261        -0.175241
 C         1.689836        -1.223491        -1.576739
 C         2.539559        -0.135696        -1.201354
 O         3.863179        -0.534976        -0.874466
 C         4.234683        -0.357486         0.501500
 C         4.400518        -1.676784         1.298615
 C         3.153249        -0.806198         1.539467
 O         1.950552        -1.378927         0.881722
 H         0.549085         1.234763         0.463106
 H        -0.549528         0.330937        -0.628964
 H        -0.348432        -0.238390         0.899324
 H         2.172176        -2.197507        -1.535075
 H         0.909605        -1.044969        -2.255079
 H         2.390820         0.915150        -1.570699
 H         4.715883         0.609178         0.708637
 H         4.230463        -2.595531         0.726610
 H         5.120733        -1.853142         2.133806
 H         3.028668        -0.199864         2.478838
