19
Iteration:   467charge 0 multiplicity 1
 C         0.177658         0.230546         0.023564
 C         1.459789        -0.597675        -0.184120
 C         1.622633        -1.324154        -1.467153
 C         2.563832        -0.119998        -1.195520
 O         3.868981        -0.482946        -0.903365
 C         4.215210        -0.379709         0.506571
 C         4.525194        -1.737325         1.277926
 C         3.283886        -0.827030         1.478196
 O         1.890770        -1.218472         0.996207
 H         0.411797         0.567227         1.020869
 H         0.211959         1.199858        -0.800132
 H        -0.715124        -0.347301        -0.086829
 H         2.291147        -2.164082        -1.559166
 H         0.743351        -1.013464        -2.047651
 H         2.393044         0.878033        -1.563944
 H         4.749756         0.496092         0.784483
 H         4.599263        -2.549168         0.554313
 H         5.269210        -1.760414         2.070237
 H         3.145563        -0.442562         2.591267
