19
Iteration:  2671
 C         0.261902         0.331165         0.131998
 C         1.460831        -0.591160        -0.212314
 C         1.587933        -1.340006        -1.536413
 C         2.530344        -0.247058        -1.172620
 O         3.855541        -0.509875        -0.862091
 C         4.290147        -0.333219         0.491424
 C         4.461033        -1.651810         1.282285
 C         3.193257        -0.752248         1.463135
 O         1.971327        -1.298108         0.948916
 H        -0.598954        -0.179619        -0.212007
 H         0.211715         0.299760         1.226443
 H         0.470668         1.247725        -0.406157
 H         1.844951        -2.444548        -1.409982
 H         0.809480        -1.116436        -2.286284
 H         2.268633         0.567595        -1.868375
 H         4.927455         0.520190         0.817806
 H         4.498866        -2.602833         0.742377
 H         5.353585        -1.581797         1.972785
 H         2.995968        -0.192001         2.386651
