19
Iteration:  1752
 C         0.219786         0.246599         0.084449
 C         1.363029        -0.619031        -0.223919
 C         1.629220        -1.210157        -1.580641
 C         2.538470        -0.045867        -1.161648
 O         3.887129        -0.462304        -0.860978
 C         4.343591        -0.473344         0.519195
 C         4.391805        -1.719175         1.344070
 C         3.222371        -0.746012         1.565657
 O         2.025342        -1.354169         0.884204
 H         0.368238         0.891172         0.927816
 H        -0.072822         0.770129        -0.782786
 H        -0.653231        -0.491051         0.489996
 H         2.043853        -2.241963        -1.555744
 H         0.795085        -1.017243        -2.366697
 H         2.313652         0.850591        -1.777767
 H         5.098387         0.186771         0.738547
 H         4.180657        -2.673989         0.777127
 H         5.370250        -1.817025         1.892755
 H         2.899133        -0.011337         2.441889
