19
Iteration:  1784charge 0 multiplicity 1
 C         0.236932         0.207154         0.079947
 C         1.518930        -0.513163        -0.211476
 C         1.712534        -1.280867        -1.468638
 C         2.556773        -0.091328        -1.136677
 O         3.971163        -0.448799        -0.942167
 C         4.237329        -0.368439         0.491264
 C         4.335710        -1.763628         1.190992
 C         3.169981        -0.946487         1.514153
 O         1.894767        -1.183745         1.049773
 H         0.230638         0.785691         0.962703
 H        -0.080194         0.686600        -0.792919
 H        -0.470094        -0.795284         0.304171
 H         2.112604        -2.298598        -1.400964
 H         0.981781        -1.180246        -2.341612
 H         2.428862         0.796751        -1.831594
 H         4.601308         0.515581         0.900552
 H         4.223130        -2.467397         0.311705
 H         5.170422        -2.019198         1.896041
 H         3.169531        -0.236095         2.481483
