19
Iteration:  4307charge 0 multiplicity 1
 C         0.591408         0.405363         0.288811
 C         1.433617        -0.716262        -0.230311
 C         1.615733        -1.265653        -1.637332
 C         2.534999        -0.185342        -1.252314
 O         3.827566        -0.441365        -0.907374
 C         4.109626        -0.338536         0.593633
 C         4.350380        -1.595224         1.360397
 C         3.056678        -0.852076         1.542574
 O         2.055455        -1.476172         0.756839
 H         0.159521         1.121249        -0.510534
 H        -0.313450         0.053275         0.819492
 H         1.262094         1.093529         0.971982
 H         1.976110        -2.295744        -1.473129
 H         0.774250        -1.062069        -2.307327
 H         2.341162         0.855351        -1.580526
 H         4.657975         0.586160         0.855873
 H         4.285276        -2.614658         0.888971
 H         5.140457        -1.732577         2.095833
 H         2.715929        -0.183686         2.373047
