19
Iteration:  4831charge 0 multiplicity 1
 C         0.533623         0.524447         0.371393
 C         1.436946        -0.649612        -0.239899
 C         1.598086        -1.309090        -1.551073
 C         2.595715        -0.260542        -1.277035
 O         3.920419        -0.512527        -0.884800
 C         4.124866        -0.272417         0.541714
 C         4.299843        -1.547520         1.346848
 C         3.012689        -0.877908         1.460974
 O         2.008606        -1.513907         0.755753
 H         0.261304         1.275985        -0.440350
 H        -0.248719        -0.118934         0.818494
 H         1.240129         1.125256         1.010616
 H         1.887589        -2.315887        -1.512351
 H         0.928734        -1.144842        -2.487991
 H         2.487705         0.774055        -1.787930
 H         4.713540         0.648771         0.647214
 H         4.420989        -2.547500         0.859686
 H         4.896016        -1.447261         2.317636
 H         2.762231        -0.548303         2.516968
