19
Iteration:  4890charge 0 multiplicity 1
 C         0.357701         0.412715         0.113234
 C         1.443815        -0.607273        -0.156092
 C         1.594802        -1.145035        -1.620852
 C         2.587764        -0.147078        -1.132379
 O         3.818650        -0.685875        -0.789840
 C         4.211824        -0.370463         0.497567
 C         4.455740        -1.599097         1.345773
 C         3.121202        -0.836282         1.459655
 O         2.044923        -1.450459         0.848316
 H        -0.082116         0.718500        -0.784572
 H        -0.554208        -0.011502         0.509806
 H         0.416498         1.230679         0.835218
 H         1.922317        -2.199518        -1.801849
 H         0.888849        -0.778823        -2.311334
 H         2.627186         0.865113        -1.487079
 H         4.664212         0.735947         0.649152
 H         4.268442        -2.484542         0.760415
 H         5.226476        -1.700941         2.041915
 H         2.972211        -0.122239         2.293635
