19
Iteration:  1702
 C         0.385999         0.309121         0.293323
 C         1.466815        -0.570431        -0.251092
 C         1.531640        -1.161047        -1.733131
 C         2.656950        -0.205699        -1.183231
 O         3.893838        -0.653580        -0.807014
 C         4.111225        -0.287898         0.514261
 C         4.498415        -1.466474         1.362660
 C         3.073154        -0.879540         1.503432
 O         1.997989        -1.497730         0.808213
 H         0.934959         1.007612         1.061266
 H        -0.065128         1.095618        -0.464238
 H        -0.383961        -0.272581         0.727634
 H         1.902313        -2.163622        -1.908274
 H         0.785575        -0.774031        -2.475456
 H         2.567990         0.806114        -1.527441
 H         4.499809         0.808389         0.734201
 H         4.338537        -2.458017         0.915095
 H         5.150458        -1.527789         2.214495
 H         2.750555        -0.395279         2.345336
