19
Iteration:   725charge 0 multiplicity 1
 C         0.226483         0.237938         0.045879
 C         1.529293        -0.605623        -0.141502
 C         1.682547        -1.274741        -1.468163
 C         2.576485        -0.099815        -1.111259
 O         3.929117        -0.443368        -0.848388
 C         4.236698        -0.412660         0.474885
 C         4.345177        -1.647403         1.148755
 C         3.166322        -0.842760         1.449869
 O         1.964395        -1.330997         0.982303
 H         0.277771         1.424277         0.251012
 H        -0.282229         0.322180        -0.871357
 H        -0.487903        -0.240119         0.839117
 H         2.203767        -2.246064        -1.650503
 H         0.734031        -1.082788        -2.074926
 H         2.316098         0.899052        -1.495316
 H         4.770938         0.502688         0.860365
 H         4.123242        -2.646161         0.721480
 H         5.194496        -1.861755         1.858724
 H         3.141723        -0.363282         2.361446
