19
Iteration:   140charge 0 multiplicity 1
 C         0.340567         0.251738         0.187281
 C         1.542693        -0.609177        -0.204262
 C         1.625813        -1.322926        -1.511470
 C         2.518690        -0.136010        -1.175718
 O         3.854481        -0.501247        -0.843909
 C         4.246148        -0.368723         0.489131
 C         4.339174        -1.644874         1.250627
 C         3.138021        -0.767353         1.520469
 O         2.031563        -1.317183         0.846969
 H         0.630974         1.180371         0.529771
 H        -0.329527         0.388094        -0.776789
 H        -0.278908        -0.244435         0.871025
 H         2.056155        -2.297937        -1.513393
 H         0.813707        -1.087093        -2.199038
 H         2.471613         0.770590        -1.776652
 H         4.811145         0.497407         0.642573
 H         3.987847        -2.583022         0.861848
 H         5.201093        -1.675903         1.934452
 H         2.888153        -0.109432         2.425425
