19
Iteration:  3811
 C         0.433362         0.340322         0.252530
 C         1.505237        -0.635359        -0.223803
 C         1.564239        -1.191663        -1.581337
 C         2.530216        -0.075746        -1.102108
 O         3.880847        -0.558407        -0.914425
 C         4.200669        -0.435387         0.424708
 C         4.385996        -1.586725         1.452639
 C         3.103782        -0.806580         1.406740
 O         1.998709        -1.501507         0.777159
 H         0.257876         1.196394        -0.346371
 H        -0.450724        -0.252256         0.300546
 H         0.522209         0.887445         1.149173
 H         2.173986        -2.233420        -1.584355
 H         0.670835        -0.957776        -2.194576
 H         2.536874         1.046215        -1.336291
 H         4.828665         0.514924         0.676363
 H         4.447889        -2.647593         1.261166
 H         4.918662        -1.232214         2.254111
 H         2.777927        -0.106871         2.173323
