19
Iteration:  4204
 C         0.298994         0.155273         0.131099
 C         1.534614        -0.571242        -0.154674
 C         1.642468        -1.074820        -1.615434
 C         2.561588        -0.102344        -1.170210
 O         3.916647        -0.563831        -0.944353
 C         4.266953        -0.485360         0.405886
 C         4.309948        -1.648189         1.360499
 C         3.155715        -0.719053         1.538027
 O         1.970518        -1.376841         0.960557
 H         0.100640         1.087968        -0.460722
 H        -0.685901        -0.494050         0.324044
 H         0.383986         0.481954         1.202788
 H         1.888568        -2.138530        -1.875260
 H         0.823458        -0.789381        -2.252326
 H         2.414672         0.947197        -1.501320
 H         4.917105         0.418961         0.617688
 H         4.074329        -2.636122         0.964739
 H         5.122641        -1.836340         2.101701
 H         2.966491        -0.069004         2.394554
