19
Iteration:  4733charge 0 multiplicity 1
 C         0.224949         0.219833         0.126312
 C         1.526106        -0.575051        -0.213724
 C         1.560340        -1.131467        -1.614935
 C         2.564798        -0.107653        -1.159814
 O         3.838678        -0.667673        -0.902681
 C         4.256915        -0.406850         0.561920
 C         4.394568        -1.697062         1.320406
 C         3.189525        -0.741306         1.539424
 O         2.037580        -1.266643         0.906798
 H        -0.237164         0.775477        -0.727480
 H        -0.383118        -0.647951         0.303942
 H         0.384375         0.983272         0.999680
 H         2.212388        -2.082014        -1.776327
 H         0.816237        -0.967112        -2.344011
 H         2.598517         0.988458        -1.472151
 H         5.036639         0.463620         0.698722
 H         4.035147        -2.647399         0.838530
 H         5.265022        -1.884139         1.960235
 H         3.083564        -0.184082         2.459256
