19
Iteration:   508charge 0 multiplicity 1
 C         0.260773         0.269154         0.186735
 C         1.477184        -0.621267        -0.208060
 C         1.629492        -1.262058        -1.517418
 C         2.611526        -0.103431        -1.160019
 O         3.907549        -0.590975        -0.896826
 C         4.188118        -0.334005         0.521663
 C         4.446361        -1.599227         1.308565
 C         3.120237        -0.774284         1.456571
 O         1.983377        -1.384859         0.886889
 H         0.492866         0.992840         1.015928
 H        -0.002910         0.929218        -0.622137
 H        -0.560573        -0.385221         0.433378
 H         1.901649        -2.298106        -1.657486
 H         0.836686        -0.955059        -2.216595
 H         2.543980         0.808261        -1.736807
 H         4.852710         0.634177         0.555585
 H         4.147840        -2.490595         0.772209
 H         5.327234        -1.776835         1.903144
 H         2.842802        -0.173567         2.377283
