19
Iteration:  2117
 C         0.107901         0.161331         0.096762
 C         1.529398        -0.494123        -0.201693
 C         1.694662        -1.277749        -1.513127
 C         2.525827        -0.016691        -1.167515
 O         3.968193        -0.412037        -0.902019
 C         4.237541        -0.478996         0.495241
 C         4.360661        -1.856829         1.289285
 C         3.214901        -0.777534         1.523818
 O         1.987261        -1.254228         0.932114
 H        -0.069120         0.714370         1.077721
 H        -0.251993         0.905587        -0.738254
 H        -0.612038        -0.584205        -0.047622
 H         2.091756        -2.280342        -1.315968
 H         1.023217        -1.126060        -2.341061
 H         2.423673         0.929768        -1.756469
 H         5.026004         0.274069         0.914357
 H         3.868356        -2.797147         0.885097
 H         5.314323        -1.829391         1.981516
 H         3.292161        -0.076211         2.307442
