19
Iteration:  2001
 C         0.442355         0.358838         0.281605
 C         1.509010        -0.596593        -0.248031
 C         1.509381        -1.237523        -1.608611
 C         2.612278        -0.251927        -1.213394
 O         3.920921        -0.521238        -0.840611
 C         4.204534        -0.283048         0.558427
 C         4.361309        -1.565020         1.359841
 C         3.061033        -0.812356         1.444801
 O         2.028123        -1.484836         0.773966
 H         0.853402         0.906534         1.157873
 H        -0.114376         1.037202        -0.323368
 H        -0.329132        -0.388056         0.556710
 H         1.621616        -2.340147        -1.488698
 H         0.858507        -1.066900        -2.454121
 H         2.395251         0.725256        -1.664405
 H         4.730965         0.572752         0.914572
 H         4.157287        -2.437647         0.757530
 H         5.108527        -1.422631         2.141565
 H         2.580373        -0.267937         2.286649
