19
Iteration:  3755charge 0 multiplicity 1
 C         0.427617         0.398722         0.262317
 C         1.424250        -0.618802        -0.301423
 C         1.526513        -1.206676        -1.611858
 C         2.598925        -0.209951        -1.224394
 O         3.930498        -0.558413        -0.820374
 C         4.185988        -0.290485         0.574968
 C         4.499525        -1.559143         1.310340
 C         3.093121        -1.005133         1.455212
 O         1.864371        -1.391322         0.836779
 H        -0.241775         0.672698        -0.501431
 H        -0.094497        -0.063480         1.133444
 H         1.061873         1.116374         0.729031
 H         1.989576        -2.209593        -1.606409
 H         0.887524        -0.808492        -2.443901
 H         2.490971         0.706481        -1.840649
 H         4.605479         0.779414         0.876784
 H         5.034214        -2.290467         0.711781
 H         5.022062        -1.611912         2.302049
 H         2.886499        -0.629527         2.509818
