19
Iteration:   989charge 0 multiplicity 1
 C         0.222363         0.253829         0.090110
 C         1.507746        -0.590140        -0.235733
 C         1.666819        -1.386118        -1.529517
 C         2.567740        -0.181533        -1.159181
 O         3.885510        -0.367884        -0.849731
 C         4.248373        -0.390390         0.566697
 C         4.422024        -1.764415         1.158622
 C         3.195589        -0.870439         1.475487
 O         1.908774        -1.137204         0.979645
 H         0.234738         0.840450         1.119047
 H        -0.184358         0.759983        -0.792024
 H        -0.544479        -0.385472         0.375281
 H         2.142790        -2.322913        -1.413151
 H         0.858285        -1.371016        -2.199317
 H         2.352256         0.833459        -1.535696
 H         5.125670         0.451909         0.561695
 H         4.643747        -2.662995         0.647582
 H         5.086983        -1.825374         1.975826
 H         3.045260        -0.498453         2.505365
