19
Iteration:  1050
 C         0.215458         0.238520         0.112422
 C         1.475047        -0.649054        -0.215279
 C         1.534175        -1.220166        -1.560908
 C         2.524557        -0.107887        -1.187551
 O         3.853686        -0.483148        -0.827557
 C         4.291126        -0.428149         0.483810
 C         4.481056        -1.713125         1.402048
 C         3.200803        -0.833904         1.462837
 O         2.028515        -1.276315         0.903927
 H         0.381117         0.924663         0.907033
 H         0.115494         0.942482        -0.718576
 H        -0.772418        -0.436564         0.238940
 H         2.203819        -2.091763        -1.651854
 H         0.870468        -1.153933        -2.437002
 H         2.382035         0.892197        -1.688236
 H         4.843018         0.380577         0.688434
 H         4.398354        -2.648687         0.836845
 H         5.200048        -1.538062         2.223544
 H         3.035505         0.019223         2.135669
