19
Iteration:  1757
 C         0.196198         0.212527         0.102777
 C         1.392932        -0.613290        -0.268134
 C         1.626005        -1.202068        -1.559782
 C         2.559284        -0.103875        -1.161563
 O         3.873341        -0.442780        -0.838378
 C         4.328968        -0.445586         0.525673
 C         4.399059        -1.761666         1.291171
 C         3.204639        -0.716563         1.553232
 O         2.009436        -1.313380         0.905546
 H         0.285476         0.888603         1.029729
 H         0.060711         0.732523        -0.923920
 H        -0.498115        -0.409435         0.448845
 H         2.037147        -2.195138        -1.584863
 H         0.792198        -1.077687        -2.212138
 H         2.430174         0.811619        -1.718312
 H         5.323584         0.164831         0.783148
 H         4.179652        -2.631224         0.726391
 H         5.258131        -1.839127         1.914247
 H         2.959708        -0.199238         2.384614
