19
Iteration:  3227
 C         0.434433         0.355722         0.196345
 C         1.425459        -0.665820        -0.130405
 C         1.623705        -1.228896        -1.615522
 C         2.554792        -0.098105        -1.158371
 O         3.856988        -0.604875        -0.917097
 C         4.122246        -0.331949         0.529914
 C         4.520677        -1.494648         1.324770
 C         3.139358        -0.911462         1.469631
 O         1.879414        -1.463904         0.878757
 H         0.832967         1.437264         0.195101
 H        -0.534007         0.476569        -0.576075
 H         0.180719         0.148944         1.253732
 H         2.211423        -2.128855        -1.731218
 H         0.683098        -1.092178        -2.266223
 H         2.529837         0.949891        -1.607249
 H         4.815022         0.596577         0.529114
 H         4.747094        -2.298753         0.622705
 H         5.293264        -1.501514         2.116021
 H         3.039231        -0.422772         2.401908
