19
Iteration:  3114charge 0 multiplicity 1
 C         0.272136         0.272699         0.108818
 C         1.478898        -0.653329        -0.165600
 C         1.579035        -1.208599        -1.578512
 C         2.508554        -0.184317        -1.107412
 O         3.826822        -0.600411        -0.905138
 C         4.272122        -0.372235         0.479635
 C         4.468127        -1.618334         1.327819
 C         3.221790        -0.714976         1.449564
 O         2.002953        -1.370912         0.917792
 H         0.116266         0.532676         1.214295
 H         0.496936         1.196845        -0.287099
 H        -0.571374        -0.230298        -0.388732
 H         1.895116        -2.193250        -1.604067
 H         0.926226        -0.723576        -2.303094
 H         2.482360         0.860304        -1.277745
 H         4.825642         0.635984         0.787052
 H         4.120895        -2.470337         0.731613
 H         5.300132        -1.639462         2.122671
 H         2.962743        -0.112208         2.349508
