19
Iteration:  3491
 C         0.353970         0.230757         0.143751
 C         1.442848        -0.608201        -0.221032
 C         1.567458        -1.107569        -1.623084
 C         2.579311        -0.114815        -1.170762
 O         3.807620        -0.695039        -0.790412
 C         4.174276        -0.380317         0.508975
 C         4.521986        -1.568951         1.297731
 C         3.160019        -0.862036         1.512889
 O         1.987942        -1.314609         0.859815
 H         0.188366         1.149334        -0.373367
 H        -0.578098        -0.296883        -0.037466
 H         0.495047         0.503211         1.136064
 H         2.065847        -2.025558        -1.706155
 H         0.708198        -0.827621        -2.335396
 H         2.588575         0.936792        -1.481205
 H         4.938353         0.531289         0.692432
 H         4.498597        -2.559807         0.925387
 H         5.378245        -1.503886         2.002564
 H         2.824345        -0.251653         2.405359
