19
Iteration:  3569
 C         0.423943         0.404562         0.343938
 C         1.441227        -0.573173        -0.252346
 C         1.578272        -1.232968        -1.661982
 C         2.622872        -0.235077        -1.270850
 O         3.846625        -0.597523        -0.813320
 C         4.147984        -0.292155         0.569759
 C         4.429632        -1.575886         1.363186
 C         3.105595        -0.828847         1.470619
 O         2.006503        -1.483533         0.723397
 H        -0.145211         0.846198        -0.375014
 H        -0.176246         0.054790         1.225484
 H         0.850031         1.220249         0.836556
 H         1.866710        -2.294202        -1.496914
 H         1.010130        -0.954343        -2.480945
 H         2.436080         0.758247        -1.609961
 H         4.556318         0.727472         0.940626
 H         4.425315        -2.469996         0.596348
 H         5.097969        -1.669307         2.254886
 H         2.872500        -0.354963         2.509463
