19
Iteration:   568
 C         0.473499         0.342923         0.358043
 C         1.518033        -0.634161        -0.235652
 C         1.497407        -1.176267        -1.690166
 C         2.610240        -0.212309        -1.220066
 O         3.868711        -0.676448        -0.859029
 C         4.117936        -0.212402         0.508841
 C         4.392709        -1.493048         1.450723
 C         3.050358        -0.815597         1.408609
 O         2.068687        -1.515510         0.778576
 H         0.900632         1.138953         0.960976
 H        -0.260811         0.662901        -0.502017
 H        -0.184428        -0.211929         1.123381
 H         1.837981        -2.203704        -1.712727
 H         0.841159        -0.816221        -2.479387
 H         2.485093         0.853345        -1.530309
 H         4.645896         0.676511         0.586480
 H         4.624638        -2.404464         0.912956
 H         5.013199        -1.146207         2.283067
 H         2.617183        -0.505707         2.393190
