19
Iteration:  2049
 C         0.351789         0.313608         0.029603
 C         1.488277        -0.560873        -0.163168
 C         1.676874        -1.301984        -1.529515
 C         2.535418        -0.074081        -1.131615
 O         3.856932        -0.461167        -0.821819
 C         4.201883        -0.352052         0.507236
 C         4.448883        -1.681286         1.180409
 C         3.188689        -0.898151         1.544292
 O         1.886876        -1.379700         0.947611
 H         0.679391         1.253922         0.393441
 H        -0.193483         0.433384        -0.951846
 H        -0.474346        -0.122549         0.646830
 H         2.121616        -2.290030        -1.675712
 H         0.887721        -1.207923        -2.306910
 H         2.493792         0.934729        -1.592691
 H         4.907573         0.440126         0.756434
 H         4.309590        -2.527000         0.468894
 H         5.112638        -1.728272         2.086913
 H         2.988860        -0.498110         2.641534
