19
Iteration:  1080
 C         0.335909         0.274067         0.236758
 C         1.542916        -0.579720        -0.232833
 C         1.585291        -1.142678        -1.551751
 C         2.609084        -0.193596        -1.152482
 O         3.870747        -0.631712        -0.843483
 C         4.203765        -0.297094         0.441319
 C         4.389284        -1.478839         1.294708
 C         3.077043        -0.885884         1.516865
 O         1.971197        -1.438508         0.838824
 H         0.601493         0.986779         0.947576
 H        -0.066650         0.759513        -0.708915
 H        -0.332997        -0.428829         0.765586
 H         1.886536        -2.222752        -1.579860
 H         1.096778        -0.867108        -2.503180
 H         2.618228         0.694968        -1.698471
 H         4.785339         0.576944         0.615604
 H         4.508939        -2.482588         0.847004
 H         5.119706        -1.394485         2.132914
 H         2.828026        -0.285390         2.344907
