19
Iteration:  4402
 C         0.242711         0.256153         0.148736
 C         1.487221        -0.552912        -0.183076
 C         1.640704        -1.092338        -1.611491
 C         2.550155        -0.034410        -1.094789
 O         3.833172        -0.661211        -0.933116
 C         4.278747        -0.466517         0.392451
 C         4.436855        -1.606823         1.367338
 C         3.171357        -0.826695         1.469274
 O         1.991214        -1.375870         0.962979
 H        -0.208216         0.749927        -0.739859
 H        -0.479954        -0.595532         0.277318
 H         0.345359         0.865258         0.961568
 H         2.370037        -1.960746        -1.732440
 H         0.783886        -0.976333        -2.296173
 H         2.360211         1.003401        -1.297832
 H         4.899081         0.332208         0.601030
 H         4.379523        -2.682280         1.093639
 H         5.149257        -1.524583         2.213175
 H         2.956834        -0.164384         2.299059
