19
Iteration:  5000charge 0 multiplicity 1
 C         0.358267         0.437777         0.060138
 C         1.465349        -0.562672        -0.202711
 C         1.578942        -1.286536        -1.547578
 C         2.568973        -0.204085        -1.162406
 O         3.903698        -0.484901        -0.873088
 C         4.191039        -0.408826         0.529454
 C         4.499221        -1.630519         1.227040
 C         3.146288        -0.948283         1.483667
 O         1.863701        -1.390138         1.002147
 H         0.265933         1.029291        -0.800853
 H        -0.437107         0.044357         0.641628
 H         0.931770         1.140502         0.674325
 H         2.046784        -2.198720        -1.769608
 H         0.803614        -0.900310        -2.314296
 H         2.496220         0.760223        -1.607975
 H         4.780940         0.620569         0.791256
 H         4.759579        -2.529914         0.688416
 H         4.974501        -1.511794         2.204145
 H         2.834454        -0.647648         2.499505
