19
Iteration:  1089charge 0 multiplicity 1
 C         0.434943         0.246354         0.297914
 C         1.525079        -0.554511        -0.147005
 C         1.552352        -1.189763        -1.600269
 C         2.670179        -0.172278        -1.172843
 O         3.897629        -0.678155        -0.830082
 C         4.112404        -0.277716         0.492925
 C         4.406081        -1.477772         1.315332
 C         3.018745        -0.830429         1.384348
 O         1.971618        -1.481391         0.807790
 H         0.764476         1.156759         0.912792
 H        -0.124078         0.619016        -0.659023
 H        -0.405419        -0.222430         0.708219
 H         2.021645        -2.199855        -1.512862
 H         0.782876        -0.875832        -2.359993
 H         2.749635         0.853132        -1.540184
 H         4.695392         0.754629         0.688491
 H         4.512967        -2.323942         0.613219
 H         5.094846        -1.411857         2.176877
 H         2.799780        -0.162234         2.203216
