19
Iteration:  2028
 C         0.355627         0.411040         0.133155
 C         1.435599        -0.614653        -0.183996
 C         1.613366        -1.305593        -1.518346
 C         2.505190        -0.127611        -1.193343
 O         3.940615        -0.411628        -0.872938
 C         4.181336        -0.390314         0.567638
 C         4.436032        -1.679924         1.352044
 C         3.151249        -0.947110         1.418571
 O         1.991846        -1.392571         0.844710
 H         0.767510         1.251438         0.703753
 H        -0.190488         0.704616        -0.826495
 H        -0.441108        -0.087131         0.772372
 H         1.974319        -2.322466        -1.522626
 H         0.875412        -1.226699        -2.345768
 H         2.225647         0.786739        -1.744911
 H         4.555758         0.601559         1.053363
 H         4.593155        -2.652767         0.824666
 H         5.254822        -1.459672         2.101035
 H         2.766840        -0.305565         2.246169
