19
Iteration:  4728
 C         0.233434         0.238910         0.124296
 C         1.546887        -0.551240        -0.206477
 C         1.590393        -1.165448        -1.600801
 C         2.570053        -0.091144        -1.176889
 O         3.845412        -0.607756        -0.920319
 C         4.211778        -0.407954         0.561803
 C         4.389975        -1.743773         1.340832
 C         3.202397        -0.751561         1.526452
 O         2.017227        -1.281757         0.920574
 H        -0.103479         0.664565        -0.823330
 H        -0.398636        -0.635566         0.452121
 H         0.621912         0.709978         0.985868
 H         2.060442        -2.098531        -1.747884
 H         0.714229        -0.954940        -2.282665
 H         2.546009         0.885658        -1.590638
 H         4.920798         0.337841         0.694917
 H         3.973357        -2.619652         0.910689
 H         5.309524        -1.779262         1.923034
 H         3.053379        -0.034023         2.364863
