19
Iteration:  2824
 C         0.350514         0.398109         0.135736
 C         1.520224        -0.591185        -0.175515
 C         1.508086        -1.245715        -1.541264
 C         2.558395        -0.145720        -1.194097
 O         3.832122        -0.647634        -0.909145
 C         4.196037        -0.299189         0.465236
 C         4.476637        -1.522351         1.321391
 C         3.160769        -0.852982         1.526322
 O         2.021913        -1.472705         0.947978
 H        -0.196948         0.167721         0.991955
 H         0.528426         1.404447        -0.333204
 H        -0.296894        -0.018922        -0.648680
 H         2.073029        -2.147772        -1.690954
 H         0.651437        -1.027684        -2.288260
 H         2.508435         0.900307        -1.643939
 H         4.589276         0.697337         0.812782
 H         4.432786        -2.602555         0.850153
 H         5.278106        -1.481733         2.140055
 H         2.959670        -0.291322         2.458961
