19
Iteration:  3916charge 0 multiplicity 1
 C         0.453938         0.311992         0.109580
 C         1.540923        -0.653818        -0.222501
 C         1.550569        -1.209463        -1.538618
 C         2.561624        -0.226981        -1.178013
 O         3.859499        -0.339704        -0.816413
 C         4.211973        -0.419580         0.513369
 C         4.338683        -1.703981         1.266813
 C         3.162880        -0.824684         1.440396
 O         1.956526        -1.385656         0.929923
 H        -0.226478         0.476960        -0.770926
 H        -0.358525        -0.152793         0.859430
 H         0.773816         1.235031         0.683668
 H         1.945448        -2.164443        -1.525452
 H         0.897452        -1.059925        -2.283573
 H         2.442747         0.731746        -1.583524
 H         4.881704         0.404270         0.756758
 H         4.106413        -2.653953         0.677109
 H         5.130846        -1.688343         2.026827
 H         2.942307        -0.227824         2.372263
