19
Iteration:  3020
 C         0.525357         0.359326         0.308252
 C         1.543139        -0.609163        -0.231954
 C         1.515427        -1.282312        -1.606869
 C         2.539074        -0.167023        -1.235770
 O         3.911160        -0.503822        -0.888512
 C         4.112032        -0.392757         0.499508
 C         4.326022        -1.561951         1.484234
 C         3.024688        -0.776497         1.423811
 O         2.090953        -1.507348         0.804234
 H         0.845707         1.360750         0.439906
 H        -0.271718         0.491171        -0.577656
 H         0.127253        -0.120019         1.212069
 H         1.688640        -2.347644        -1.951016
 H         0.727950        -0.932905        -2.233902
 H         2.293226         0.880899        -1.631658
 H         4.543997         0.555034         0.637199
 H         4.333378        -2.514420         0.995074
 H         5.115728        -1.265737         2.192926
 H         2.976204        -0.198435         2.287943
