19
Iteration:  2763
 C         0.434017         0.271481         0.348938
 C         1.504866        -0.549299        -0.244693
 C         1.549134        -1.260721        -1.495183
 C         2.593923        -0.166483        -1.208572
 O         3.896955        -0.706603        -0.952281
 C         4.139442        -0.315242         0.456591
 C         4.362896        -1.508793         1.474235
 C         3.081721        -0.693126         1.407595
 O         2.054526        -1.432249         0.734381
 H        -0.146269        -0.347516         1.132853
 H         0.658692         1.089656         0.976056
 H        -0.277743         0.508794        -0.436239
 H         1.868899        -2.288098        -1.557890
 H         0.692870        -0.981271        -2.184048
 H         2.655450         0.794425        -1.716506
 H         4.669694         0.575072         0.497458
 H         4.158045        -2.525765         1.237445
 H         5.171667        -1.249118         2.095565
 H         2.776395        -0.121626         2.283046
