19
Iteration:  3030
 C         0.549184         0.322837         0.294662
 C         1.544914        -0.651575        -0.233061
 C         1.471741        -1.248225        -1.620679
 C         2.577654        -0.199086        -1.191939
 O         3.923158        -0.512105        -0.921355
 C         4.119949        -0.311990         0.489125
 C         4.316930        -1.524264         1.416092
 C         3.055431        -0.749799         1.504802
 O         2.036896        -1.541825         0.801087
 H         1.077120         1.232171         0.589532
 H        -0.300230         0.599109        -0.436695
 H        -0.036700        -0.034769         1.166146
 H         1.840861        -2.256097        -1.692938
 H         0.758608        -0.889249        -2.287781
 H         2.493573         0.715988        -1.786353
 H         4.715164         0.523068         0.828453
 H         4.123953        -2.508417         1.014244
 H         5.166544        -1.496071         2.123290
 H         2.612530        -0.111873         2.212295
