19
Iteration:   320charge 0 multiplicity 1
 C         0.465458         0.262775         0.271111
 C         1.504708        -0.627018        -0.239833
 C         1.461261        -1.197635        -1.660881
 C         2.561326        -0.141321        -1.138446
 O         3.829183        -0.703309        -0.891589
 C         4.224897        -0.371930         0.484294
 C         4.507098        -1.379081         1.428080
 C         3.065227        -0.830089         1.423388
 O         1.944286        -1.455234         0.830077
 H         0.916322         0.850045         1.163901
 H         0.155039         0.996786        -0.382744
 H        -0.443967        -0.356828         0.619650
 H         1.882433        -2.208583        -1.669542
 H         0.946755        -0.695777        -2.475823
 H         2.623017         0.876161        -1.583191
 H         4.629854         0.725347         0.571798
 H         4.928190        -2.348408         1.085244
 H         5.077698        -1.080984         2.336776
 H         2.860681        -0.250419         2.219296
