19
Iteration:  3683
 C         0.276151         0.212850         0.211654
 C         1.480843        -0.540778        -0.227418
 C         1.613329        -1.179688        -1.619762
 C         2.567629        -0.101162        -1.181931
 O         3.958802        -0.503191        -0.892314
 C         4.235625        -0.504459         0.472820
 C         4.376332        -1.690522         1.317332
 C         3.175352        -0.799274         1.494099
 O         1.917168        -1.286251         0.933504
 H        -0.026332         1.002410        -0.584185
 H        -0.557226        -0.510547         0.220631
 H         0.349127         0.438117         1.316020
 H         1.974418        -2.258919        -1.540075
 H         0.944936        -0.707831        -2.339857
 H         2.641136         0.857134        -1.732523
 H         4.963881         0.166630         0.720127
 H         4.316329        -2.690143         1.001615
 H         5.094219        -1.642974         2.052645
 H         3.019658        -0.207376         2.343283
