19
Iteration:   223charge 0 multiplicity 1
 C         0.301821         0.291439         0.033830
 C         1.476008        -0.579295        -0.155332
 C         1.638607        -1.320626        -1.429341
 C         2.585922        -0.173218        -1.132564
 O         3.849750        -0.542630        -0.871309
 C         4.202563        -0.325986         0.506406
 C         4.436200        -1.650105         1.159367
 C         3.151703        -0.792047         1.461477
 O         1.976551        -1.336292         0.979803
 H         0.386759         1.146042         0.877397
 H         0.117004         0.809189        -0.854741
 H        -0.611688        -0.364951         0.355279
 H         2.149280        -2.266176        -1.554482
 H         0.847651        -1.011458        -2.153802
 H         2.426971         0.911040        -1.457580
 H         4.818603         0.648842         0.587529
 H         4.347486        -2.515829         0.468617
 H         5.213019        -1.786376         1.972361
 H         3.008396        -0.337338         2.422237
