19
Iteration:  1143
 C         0.524202         0.351563         0.258044
 C         1.474826        -0.655126        -0.241703
 C         1.469369        -1.246284        -1.586508
 C         2.564356        -0.182065        -1.216833
 O         3.878217        -0.514231        -0.893983
 C         4.119282        -0.332247         0.511148
 C         4.449949        -1.470328         1.528485
 C         3.074095        -0.877349         1.433531
 O         2.047948        -1.557359         0.711675
 H         1.077802         1.045842         1.039528
 H         0.058462         1.189039        -0.365893
 H        -0.218988        -0.118251         0.872437
 H         1.870590        -2.284618        -1.776650
 H         0.630049        -0.940963        -2.253687
 H         2.514945         0.860871        -1.620724
 H         4.457938         0.796841         0.771205
 H         4.396969        -2.503380         1.151435
 H         5.060262        -1.206828         2.409738
 H         2.661407        -0.191709         2.163919
