19
Iteration:   814charge 0 multiplicity 1
 C         0.378780         0.288075         0.232821
 C         1.513122        -0.657870        -0.218305
 C         1.561941        -1.177466        -1.581633
 C         2.570318        -0.216489        -1.125325
 O         3.847185        -0.613228        -0.901824
 C         4.134286        -0.325529         0.497165
 C         4.464574        -1.472476         1.408375
 C         3.069538        -0.817390         1.458958
 O         2.040957        -1.476313         0.767226
 H         0.783728         0.678327         1.304963
 H         0.434084         1.321468        -0.253301
 H        -0.613372        -0.146320         0.221269
 H         1.942941        -2.182290        -1.714084
 H         0.872142        -0.828838        -2.319449
 H         2.409169         0.778163        -1.494146
 H         4.678430         0.736137         0.642521
 H         4.541977        -2.397763         0.863772
 H         5.107551        -1.076992         2.145201
 H         2.759977        -0.339639         2.405347
