19
Iteration:   658
 C         0.246904         0.253076         0.117988
 C         1.538607        -0.559290        -0.134281
 C         1.641127        -1.275822        -1.551131
 C         2.562277        -0.148273        -1.136647
 O         3.885746        -0.526561        -0.947583
 C         4.299808        -0.353581         0.455353
 C         4.341290        -1.574302         1.286009
 C         3.138164        -0.850998         1.520726
 O         1.975020        -1.351606         0.947299
 H         0.291916         0.621226         1.228525
 H         0.108436         1.015531        -0.596272
 H        -0.676185        -0.501268         0.120431
 H         2.187756        -2.233288        -1.535899
 H         0.939193        -0.902596        -2.303834
 H         2.585367         0.864358        -1.578906
 H         4.681470         0.588929         0.773073
 H         4.166955        -2.488675         0.691699
 H         5.201921        -1.909551         1.871198
 H         2.963252        -0.318050         2.358973
