19
Iteration:  2721
 C         0.322063         0.383329         0.170656
 C         1.487257        -0.694709        -0.189390
 C         1.475378        -1.267642        -1.566547
 C         2.586757        -0.237867        -1.134834
 O         3.838193        -0.643106        -0.875931
 C         4.185736        -0.300142         0.444121
 C         4.587783        -1.461429         1.331880
 C         3.185989        -0.796144         1.505650
 O         1.941034        -1.425872         0.864413
 H        -0.740791         0.034520         0.097592
 H         0.524424         0.762340         1.176115
 H         0.649127         1.060953        -0.609064
 H         1.940153        -2.183142        -1.740419
 H         0.893204        -0.940221        -2.324321
 H         2.503818         0.748204        -1.526291
 H         4.627264         0.687582         0.607494
 H         4.572170        -2.446225         0.978734
 H         5.109626        -1.436378         2.207558
 H         2.917214        -0.125944         2.297945
