19
Iteration:  2259charge 0 multiplicity 1
 C         0.364566         0.260983         0.361233
 C         1.475132        -0.600760        -0.282828
 C         1.616373        -1.134275        -1.630147
 C         2.563976        -0.135247        -1.165590
 O         3.902767        -0.608790        -0.856373
 C         4.213052        -0.458689         0.445547
 C         4.337194        -1.510234         1.498178
 C         3.084077        -0.706248         1.381382
 O         2.033153        -1.508282         0.746705
 H         0.970151         0.836408         1.109644
 H        -0.179315         0.923099        -0.355544
 H        -0.326982        -0.374643         0.827377
 H         2.188393        -2.080790        -1.588295
 H         0.819909        -1.051217        -2.356354
 H         2.555110         0.907952        -1.593004
 H         4.637423         0.459378         0.635572
 H         4.086890        -2.498252         1.016521
 H         5.075206        -1.316037         2.317879
 H         2.786489         0.045203         2.158577
