19
Iteration:  2867
 C         0.263809         0.350845         0.150226
 C         1.498951        -0.567627        -0.185136
 C         1.567529        -1.406352        -1.600030
 C         2.492699        -0.200046        -1.227543
 O         3.918505        -0.479646        -0.836112
 C         4.256693        -0.306228         0.515927
 C         4.471945        -1.642404         1.304662
 C         3.211450        -0.864637         1.449125
 O         1.903785        -1.282556         0.955277
 H         0.348289         0.200425         1.183399
 H         0.437498         1.419277        -0.202002
 H        -0.652182        -0.012274        -0.344861
 H         2.031969        -2.338169        -1.459201
 H         0.754339        -1.203300        -2.329296
 H         2.389090         0.760061        -1.805458
 H         4.993065         0.562966         0.644821
 H         4.456777        -2.578341         0.615379
 H         5.184543        -1.873366         2.152012
 H         3.178230        -0.524965         2.474900
