19
Iteration:  3145
 C         0.278089         0.221091         0.228615
 C         1.549337        -0.531823        -0.168720
 C         1.672940        -1.301713        -1.525518
 C         2.538610        -0.089282        -1.258949
 O         3.841412        -0.525444        -0.975839
 C         4.245289        -0.442013         0.467364
 C         4.392200        -1.678025         1.357269
 C         3.158804        -0.788936         1.475994
 O         1.971998        -1.279761         0.906681
 H         0.393528         0.301569         1.364892
 H         0.134527         1.198480        -0.124000
 H        -0.591306        -0.409374        -0.061065
 H         2.132273        -2.278058        -1.511066
 H         0.889608        -1.242421        -2.391332
 H         2.429666         0.945349        -1.617240
 H         4.753812         0.532956         0.700554
 H         4.043612        -2.625944         0.962042
 H         5.150830        -1.506542         2.168590
 H         3.065754        -0.127919         2.415908
