19
Iteration:   686
 C         0.138807         0.181636         0.120843
 C         1.506259        -0.539018        -0.158913
 C         1.676871        -1.287664        -1.601102
 C         2.547070        -0.139550        -1.173756
 O         3.861194        -0.465478        -0.834771
 C         4.277262        -0.405448         0.504933
 C         4.445805        -1.730889         1.211411
 C         3.194325        -0.888125         1.445682
 O         1.975349        -1.169430         0.957612
 H         0.413528         0.762125         0.918497
 H        -0.264158         0.749932        -0.864850
 H        -0.586465        -0.411518         0.499918
 H         2.209125        -2.210245        -1.553141
 H         0.777343        -1.113108        -2.131466
 H         2.657975         0.844454        -1.630415
 H         4.920354         0.531135         0.853588
 H         4.394474        -2.750922         0.850651
 H         5.034702        -1.650428         2.110666
 H         3.060591        -0.302870         2.510610
