19
Iteration:   579charge 0 multiplicity 1
 C         0.519507         0.325343         0.354092
 C         1.531185        -0.612564        -0.237738
 C         1.557737        -1.192543        -1.622716
 C         2.579359        -0.200486        -1.152752
 O         3.893579        -0.698670        -0.843543
 C         4.074829        -0.229870         0.482120
 C         4.441817        -1.383886         1.390729
 C         3.063472        -0.853099         1.447095
 O         1.974522        -1.532693         0.703845
 H         0.778945         1.190618         0.936029
 H        -0.245308         0.880895        -0.406770
 H        -0.153351        -0.433938         0.899310
 H         1.653063        -2.251617        -1.723896
 H         0.772764        -0.881551        -2.304964
 H         2.714912         0.816952        -1.580497
 H         4.564829         0.620834         0.745492
 H         4.426762        -2.290518         0.810863
 H         5.008566        -1.500867         2.328361
 H         2.815712        -0.122410         2.312898
