19
Iteration:  4430
 C         0.298044         0.248463         0.185123
 C         1.433454        -0.618769        -0.221447
 C         1.541516        -1.219178        -1.531942
 C         2.563952        -0.176261        -1.155232
 O         3.946327        -0.452982        -0.899877
 C         4.270236        -0.434005         0.483902
 C         4.373977        -1.713360         1.335695
 C         3.157884        -0.748604         1.468588
 O         2.020049        -1.329645         0.872448
 H        -0.191009         0.693076        -0.665725
 H        -0.459653        -0.475329         0.520643
 H         0.725478         1.008340         1.038736
 H         1.983164        -2.132257        -1.685789
 H         0.862290        -0.670569        -2.173874
 H         2.340618         0.719434        -1.783086
 H         4.967289         0.418266         0.884972
 H         4.007910        -2.622923         0.834285
 H         5.133914        -1.892361         2.056456
 H         2.942251        -0.008109         2.353758
