19
Iteration:  3889
 C         0.142016         0.338745         0.134266
 C         1.514565        -0.561660        -0.219524
 C         1.605805        -1.198122        -1.543928
 C         2.519452        -0.109887        -1.153950
 O         3.941866        -0.526885        -0.897529
 C         4.251907        -0.464525         0.482254
 C         4.439939        -1.675544         1.350480
 C         3.176424        -0.883079         1.473321
 O         2.004175        -1.365570         0.924832
 H        -0.379417         0.904724        -0.638878
 H        -0.665504        -0.182281         0.480656
 H         0.411075         0.992789         0.952687
 H         2.266800        -2.145540        -1.797266
 H         0.849876        -1.017315        -2.424281
 H         2.549692         0.961523        -1.535642
 H         4.900823         0.410608         0.695444
 H         4.402654        -2.564598         0.788205
 H         5.210004        -1.517126         2.128581
 H         2.957410        -0.344545         2.359806
