19
Iteration:   682charge 0 multiplicity 1
 C         0.161203         0.168706         0.101349
 C         1.508971        -0.561053        -0.180825
 C         1.666602        -1.258600        -1.590015
 C         2.553825        -0.130148        -1.176226
 O         3.888268        -0.482823        -0.819623
 C         4.228389        -0.386144         0.488054
 C         4.465114        -1.738937         1.190215
 C         3.171834        -0.830555         1.458077
 O         1.956491        -1.192617         0.964984
 H         0.474314         0.800545         1.096874
 H        -0.152837         0.815405        -0.674090
 H        -0.705663        -0.507499         0.493880
 H         2.245223        -2.194583        -1.379620
 H         0.709421        -1.110352        -2.158259
 H         2.663015         0.834271        -1.668209
 H         4.991663         0.508232         0.790609
 H         4.496584        -2.820626         0.920759
 H         5.078991        -1.823895         2.134564
 H         3.049317        -0.271423         2.346805
