19
Iteration:   516
 C         0.290026         0.287534         0.188579
 C         1.471975        -0.663055        -0.153620
 C         1.596091        -1.230589        -1.539458
 C         2.590562        -0.088022        -1.186002
 O         3.925458        -0.584967        -0.885611
 C         4.221179        -0.367006         0.449089
 C         4.393567        -1.539284         1.329551
 C         3.102427        -0.832233         1.493117
 O         2.031210        -1.390939         0.853319
 H         0.642662         0.991867         1.001441
 H         0.002118         0.753993        -0.644243
 H        -0.579324        -0.355454         0.589722
 H         1.981313        -2.227638        -1.561572
 H         0.798829        -0.870341        -2.172981
 H         2.489236         0.794325        -1.860063
 H         4.761828         0.599001         0.707665
 H         4.207816        -2.493368         0.851580
 H         5.093826        -1.637166         2.178408
 H         2.749105        -0.179143         2.170196
