19
Iteration:  2545
 C         0.410056         0.401866         0.183703
 C         1.487263        -0.595020        -0.204695
 C         1.598085        -1.237932        -1.550117
 C         2.511631        -0.176824        -1.165761
 O         3.813987        -0.612432        -0.858663
 C         4.199474        -0.308126         0.448861
 C         4.451664        -1.527455         1.385459
 C         3.146565        -0.820625         1.462620
 O         1.995466        -1.516955         0.802523
 H         0.052339         0.146572         1.280310
 H         0.894987         1.385069         0.095377
 H        -0.616871         0.185576        -0.204093
 H         2.003493        -2.343552        -1.524532
 H         0.862517        -1.178188        -2.404543
 H         2.571414         0.790839        -1.769749
 H         4.552728         0.701853         0.842720
 H         4.487663        -2.578749         0.967749
 H         5.092675        -1.145639         2.264466
 H         2.927986        -0.159768         2.343428
