19
Iteration:  3262charge 0 multiplicity 1
 C         0.330330         0.333113         0.316070
 C         1.550951        -0.588134        -0.233193
 C         1.472280        -1.189509        -1.556776
 C         2.545034        -0.241226        -1.257825
 O         3.917046        -0.583556        -0.845400
 C         4.195282        -0.343562         0.525066
 C         4.415928        -1.531243         1.396918
 C         3.108844        -0.797247         1.517375
 O         2.081822        -1.466452         0.684684
 H         0.648257         1.379926         0.111997
 H        -0.749417         0.093002        -0.226205
 H         0.193819         0.129775         1.421707
 H         1.626476        -2.298162        -1.576348
 H         0.702386        -0.694589        -2.269340
 H         2.523354         0.683070        -1.885676
 H         4.850997         0.426599         0.848514
 H         4.388261        -2.393178         0.798757
 H         5.136479        -1.469802         2.196160
 H         2.719133        -0.196196         2.373133
