19
Iteration:  1251
 C         0.184184         0.182184         0.081330
 C         1.543116        -0.563991        -0.167388
 C         1.682973        -1.354111        -1.533661
 C         2.553225        -0.059431        -1.128434
 O         3.887888        -0.424587        -0.857288
 C         4.249884        -0.390652         0.456361
 C         4.281193        -1.718124         1.200978
 C         3.239445        -0.819270         1.476024
 O         1.986465        -1.256301         1.002398
 H         0.551196         0.832560         0.927039
 H        -0.255764         0.590568        -0.760649
 H        -0.569145        -0.456761         0.404457
 H         2.273029        -2.278777        -1.659899
 H         0.937002        -1.130779        -2.333645
 H         2.579930         1.006707        -1.589301
 H         5.097347         0.368377         0.615529
 H         4.028115        -2.640856         0.669975
 H         4.939132        -1.803992         2.064205
 H         3.060573        -0.329418         2.442543
