19
Iteration:  1762
 C         0.199370         0.196406         0.108247
 C         1.480798        -0.585950        -0.249048
 C         1.622549        -1.223269        -1.546249
 C         2.565175        -0.161507        -1.156844
 O         3.874406        -0.424446        -0.812317
 C         4.304554        -0.413083         0.541841
 C         4.390196        -1.778622         1.229207
 C         3.198724        -0.732047         1.481259
 O         1.992823        -1.260535         0.927035
 H         0.333248         0.887197         0.896085
 H        -0.016250         0.712789        -0.801472
 H        -0.738392        -0.583534         0.368626
 H         2.062541        -2.223870        -1.615527
 H         0.750537        -1.073304        -2.233940
 H         2.601729         0.861688        -1.622459
 H         5.182576         0.154245         0.688659
 H         4.052151        -2.688206         0.670066
 H         5.148974        -1.852686         2.056494
 H         3.051528        -0.273447         2.579697
