19
Iteration:  3690
 C         0.310887         0.212812         0.153873
 C         1.475383        -0.585997        -0.203074
 C         1.528451        -1.191280        -1.639895
 C         2.556010        -0.101166        -1.164995
 O         3.933132        -0.483310        -0.849313
 C         4.292539        -0.491554         0.492054
 C         4.353711        -1.730132         1.344058
 C         3.174271        -0.829561         1.482030
 O         1.976355        -1.276732         0.920630
 H         0.077458         1.008468        -0.456313
 H        -0.542388        -0.460820         0.353612
 H         0.368988         0.710519         1.123877
 H         2.011727        -2.161620        -1.733353
 H         0.897036        -0.787054        -2.525390
 H         2.495478         0.878504        -1.721405
 H         4.873292         0.528143         0.662840
 H         4.241934        -2.707424         0.857041
 H         5.148036        -1.623709         2.149174
 H         3.021796        -0.048587         2.302052
