19
Iteration:  1116
 C         0.500933         0.372948         0.316591
 C         1.438493        -0.619914        -0.229356
 C         1.506344        -1.227248        -1.728721
 C         2.563110        -0.219497        -1.201160
 O         3.827962        -0.589267        -0.866939
 C         4.159297        -0.310810         0.506695
 C         4.434575        -1.423664         1.482037
 C         3.062863        -0.909714         1.518259
 O         2.072759        -1.534542         0.739104
 H         1.074552         1.142274         0.802337
 H        -0.069195         0.940178        -0.352966
 H        -0.320927        -0.053181         0.987577
 H         1.886803        -2.212043        -1.837215
 H         0.907152        -0.793330        -2.505374
 H         2.566512         0.795513        -1.675331
 H         4.680376         0.561865         0.613106
 H         4.589968        -2.411443         1.072981
 H         5.048853        -1.086653         2.306854
 H         2.673904        -0.288492         2.374663
