19
Iteration:  3341charge 0 multiplicity 1
 C         0.378655         0.280996         0.138309
 C         1.526949        -0.586320        -0.210313
 C         1.537793        -1.137368        -1.568476
 C         2.570976        -0.089411        -1.150693
 O         3.779815        -0.632228        -0.804991
 C         4.193498        -0.372108         0.526661
 C         4.504174        -1.575446         1.285696
 C         3.164036        -0.912960         1.492213
 O         1.995942        -1.375042         0.845515
 H        -0.009228         0.567611        -0.879165
 H        -0.442743        -0.450437         0.599656
 H         0.432339         1.317066         0.581757
 H         1.808402        -2.155961        -1.735630
 H         0.819271        -0.769765        -2.258194
 H         2.617781         0.839278        -1.669412
 H         4.571502         0.484580         0.883065
 H         4.561104        -2.548776         0.759997
 H         5.213062        -1.417909         2.119951
 H         2.942193        -0.468847         2.510902
