19
Iteration:  2932
 C         0.254727         0.259492         0.131483
 C         1.450850        -0.575831        -0.170082
 C         1.652745        -1.259591        -1.594518
 C         2.488454        -0.127569        -1.114773
 O         3.892468        -0.508397        -0.886778
 C         4.193964        -0.417058         0.449068
 C         4.454999        -1.707290         1.348174
 C         3.236603        -0.779674         1.472222
 O         1.978153        -1.329618         0.926212
 H         0.583178         1.120260         0.663895
 H        -0.130837         0.805669        -0.809844
 H        -0.682399        -0.185259         0.512177
 H         2.173804        -2.168513        -1.706605
 H         0.888031        -1.012435        -2.320531
 H         2.444550         0.859594        -1.627330
 H         4.952502         0.371569         0.683551
 H         4.182834        -2.734848         0.999124
 H         5.293456        -1.579936         2.084615
 H         3.015534        -0.205110         2.353743
