19
Iteration:  2803charge 0 multiplicity 1
 C         0.374175         0.292738         0.204717
 C         1.479136        -0.634804        -0.221496
 C         1.541279        -1.233642        -1.609424
 C         2.535953        -0.196730        -1.156634
 O         3.862725        -0.640486        -0.853598
 C         4.176928        -0.355328         0.448569
 C         4.488037        -1.532821         1.440370
 C         3.181417        -0.757958         1.418965
 O         1.991239        -1.358813         0.840440
 H         0.151455        -0.143036         1.171739
 H         0.762750         1.364455         0.170124
 H        -0.637912         0.332431        -0.205078
 H         1.676304        -2.314986        -1.732901
 H         0.658581        -0.778946        -2.309275
 H         2.389140         0.812153        -1.682200
 H         4.866256         0.488739         0.679669
 H         4.451065        -2.591554         0.931242
 H         5.281096        -1.283998         2.230131
 H         2.855087        -0.305989         2.372529
