19
Iteration:   752charge 0 multiplicity 1
 C         0.308317         0.277662         0.141067
 C         1.465487        -0.629091        -0.245547
 C         1.659040        -1.281824        -1.581696
 C         2.517928        -0.132176        -1.211235
 O         3.871356        -0.394044        -0.871328
 C         4.232196        -0.384897         0.549196
 C         4.434251        -1.670898         1.282784
 C         3.190075        -0.862379         1.469437
 O         1.946851        -1.360598         0.941408
 H         0.722468         1.187944         0.447851
 H        -0.385152         0.639516        -0.733588
 H        -0.259496        -0.047032         0.953051
 H         2.151700        -2.190765        -1.300222
 H         0.887152        -1.366814        -2.285953
 H         2.261974         0.857119        -1.570781
 H         4.760267         0.556299         0.883453
 H         4.239358        -2.643669         0.874623
 H         5.173855        -1.855984         2.007940
 H         3.107399        -0.282443         2.470906
