19
Iteration:  2886charge 0 multiplicity 1
 C         0.302079         0.266904         0.189698
 C         1.468710        -0.591368        -0.229011
 C         1.599189        -1.347621        -1.482778
 C         2.622265        -0.202522        -1.259920
 O         3.923720        -0.413146        -0.908575
 C         4.166148        -0.432562         0.528542
 C         4.371331        -1.675080         1.229674
 C         3.157551        -0.811125         1.515799
 O         2.004838        -1.255455         0.964802
 H         0.262552         0.475300         1.326806
 H         0.190006         1.329475        -0.213311
 H        -0.611042        -0.232829        -0.313511
 H         1.812551        -2.367417        -1.420121
 H         1.025484        -1.020960        -2.285659
 H         2.482271         0.582389        -1.974171
 H         4.721662         0.573304         0.729176
 H         4.118914        -2.657887         0.759216
 H         5.269707        -1.662167         1.860264
 H         3.065970        -0.222720         2.449896
