19
Iteration:  4005charge 0 multiplicity 1
 C         0.351226         0.314437         0.115447
 C         1.508881        -0.602433        -0.144558
 C         1.556161        -1.130079        -1.602025
 C         2.606723        -0.101135        -1.118890
 O         3.784553        -0.642718        -0.838735
 C         4.212841        -0.366979         0.446747
 C         4.463584        -1.604998         1.339477
 C         3.110111        -0.818949         1.492415
 O         2.073413        -1.454004         0.883003
 H         0.137741         1.091815        -0.639814
 H        -0.697376        -0.277484         0.015641
 H         0.333707         0.897357         1.059617
 H         1.811750        -2.144288        -1.894536
 H         0.736853        -0.981658        -2.161872
 H         2.619375         0.874845        -1.635781
 H         4.769664         0.626508         0.644408
 H         4.203271        -2.496614         0.882850
 H         5.248698        -1.577056         2.048200
 H         2.838117        -0.179524         2.353439
