19
Iteration:  4145charge 0 multiplicity 1
 C         0.366049         0.400249         0.144449
 C         1.515683        -0.596721        -0.184609
 C         1.544692        -1.274869        -1.585751
 C         2.577015        -0.196362        -1.168496
 O         3.934614        -0.497283        -0.782472
 C         4.151388        -0.291695         0.545555
 C         4.424852        -1.662958         1.175009
 C         3.131001        -0.921716         1.519059
 O         1.979073        -1.422815         0.856020
 H         0.076595         0.913309        -0.752983
 H        -0.477496        -0.129162         0.459489
 H         0.746954         1.160387         0.809467
 H         1.797252        -2.331400        -1.551491
 H         0.709068        -0.941320        -2.239914
 H         2.477783         0.859628        -1.489582
 H         4.606911         0.690397         0.978915
 H         4.365746        -2.454940         0.448922
 H         5.074345        -1.655721         2.047769
 H         2.918041        -0.293307         2.490595
