19
Iteration:  4921charge 0 multiplicity 1
 C         0.249698         0.222818         0.210834
 C         1.521335        -0.538659        -0.211602
 C         1.643027        -1.122357        -1.591184
 C         2.612420        -0.052467        -1.224901
 O         3.853416        -0.645098        -0.899938
 C         4.294790        -0.540175         0.416597
 C         4.375430        -1.667513         1.447836
 C         3.168645        -0.827067         1.452308
 O         1.949531        -1.242340         0.934626
 H        -0.082838         0.749508        -0.629939
 H        -0.452425        -0.613309         0.179439
 H         0.268147         0.755484         1.164608
 H         2.046064        -2.097449        -1.971990
 H         0.798146        -0.858441        -2.099821
 H         2.600993         0.966976        -1.650918
 H         4.857248         0.418558         0.650721
 H         4.317477        -2.664061         1.032850
 H         5.030253        -1.454043         2.252013
 H         2.826960        -0.126037         2.239567
