19
Iteration:  1669
 C         0.561579         0.362354         0.317897
 C         1.476627        -0.612119        -0.301711
 C         1.489819        -1.185005        -1.597970
 C         2.585065        -0.173486        -1.185982
 O         3.851186        -0.615720        -0.806459
 C         4.102355        -0.261724         0.577038
 C         4.474416        -1.410241         1.424457
 C         3.021632        -0.941116         1.424317
 O         2.027072        -1.571422         0.661570
 H         1.068076         0.848138         1.281575
 H         0.214258         1.195445        -0.425617
 H        -0.347261        -0.078623         0.632318
 H         1.889182        -2.210453        -1.657555
 H         0.699241        -1.019085        -2.380909
 H         2.670812         0.820648        -1.596869
 H         4.509495         0.822219         0.521813
 H         4.519277        -2.475702         1.135844
 H         4.992058        -1.239509         2.379226
 H         2.632730        -0.452045         2.242594
