19
Iteration:  3046
 C         0.485519         0.354376         0.325044
 C         1.387694        -0.691353        -0.211218
 C         1.600497        -1.226888        -1.574977
 C         2.601604        -0.239378        -1.275996
 O         3.900821        -0.578933        -0.845407
 C         4.187454        -0.286440         0.521807
 C         4.412416        -1.501783         1.350063
 C         3.034523        -0.779790         1.428080
 O         1.990126        -1.468654         0.781335
 H         1.033466         1.153824         0.866398
 H        -0.019613         0.881696        -0.434246
 H        -0.263695        -0.160776         0.940070
 H         1.827007        -2.358892        -1.648362
 H         0.788683        -1.067453        -2.399735
 H         2.363926         0.838039        -1.408730
 H         4.756110         0.674928         0.608783
 H         4.308168        -2.411831         0.733509
 H         4.980327        -1.485863         2.273387
 H         2.893368        -0.281391         2.453393
