19
Iteration:  2746
 C         0.388923         0.304631         0.280546
 C         1.553824        -0.616010        -0.215015
 C         1.480403        -1.219663        -1.616040
 C         2.504481        -0.236753        -1.267187
 O         3.842194        -0.635183        -0.853452
 C         4.211867        -0.386020         0.424733
 C         4.407100        -1.439123         1.445166
 C         3.105765        -0.752074         1.448949
 O         2.078854        -1.427674         0.841817
 H        -0.310779        -0.365909         0.761008
 H         0.862216         0.947761         1.108488
 H         0.105250         0.885851        -0.618706
 H         1.751229        -2.288838        -1.599650
 H         0.793779        -0.895454        -2.348455
 H         2.452572         0.720867        -1.787252
 H         4.869205         0.538689         0.727370
 H         4.520590        -2.449761         1.035082
 H         5.013832        -1.343430         2.381195
 H         2.815365        -0.037856         2.227683
