19
Iteration:  3103charge 0 multiplicity 1
 C         0.309908         0.312246         0.070260
 C         1.466806        -0.600745        -0.141913
 C         1.491946        -1.184807        -1.559604
 C         2.555306        -0.197341        -1.101481
 O         3.879462        -0.611498        -0.842168
 C         4.221092        -0.362510         0.440039
 C         4.508116        -1.515002         1.317782
 C         3.195419        -0.853658         1.466453
 O         2.035276        -1.395090         0.907635
 H        -0.029236         0.425347         1.147208
 H         0.318113         1.168880        -0.495816
 H        -0.617568        -0.168454        -0.321461
 H         1.831568        -2.130238        -1.809250
 H         0.643782        -0.858803        -2.162576
 H         2.427156         0.775662        -1.540724
 H         4.736115         0.694898         0.579997
 H         4.401719        -2.484464         0.818633
 H         5.075726        -1.795029         2.250456
 H         3.039352        -0.132164         2.311029
