19
Iteration:  4212charge 0 multiplicity 1
 C         0.258429         0.190461         0.168398
 C         1.521135        -0.663188        -0.177653
 C         1.610073        -1.098113        -1.689274
 C         2.594047        -0.083883        -1.127309
 O         3.882252        -0.599933        -0.897964
 C         4.269199        -0.465001         0.495166
 C         4.316771        -1.641885         1.311241
 C         3.166339        -0.747419         1.496988
 O         2.017987        -1.353377         0.952966
 H         0.060836         0.951610        -0.531928
 H        -0.606818        -0.438037         0.110275
 H         0.402797         0.728806         1.078123
 H         1.967978        -2.099446        -1.834682
 H         0.702933        -0.615136        -2.048049
 H         2.561246         1.044647        -1.380554
 H         4.895045         0.554447         0.517673
 H         4.031133        -2.644217         0.968780
 H         5.072810        -1.772845         2.015720
 H         3.119066         0.217665         2.214806
