19
Iteration:  4331
 C         0.487749         0.400630         0.289647
 C         1.521742        -0.599213        -0.186620
 C         1.563360        -1.262694        -1.563429
 C         2.568865        -0.151948        -1.217700
 O         3.881232        -0.475750        -0.891961
 C         4.141593        -0.386380         0.485486
 C         4.357228        -1.583671         1.355235
 C         3.069751        -0.866689         1.424058
 O         1.980954        -1.527924         0.773392
 H         0.119011         1.173122        -0.393141
 H        -0.366189        -0.149575         0.575229
 H         0.929630         1.018528         1.195357
 H         2.228128        -2.182977        -1.481206
 H         0.829673        -1.136842        -2.343880
 H         2.435520         0.865367        -1.746905
 H         4.656816         0.585114         0.944446
 H         4.597944        -2.615529         1.179055
 H         4.945416        -1.337419         2.247256
 H         2.741417        -0.196657         2.388836
