19
Iteration:  1308charge 0 multiplicity 1
 C         0.305314         0.296877         0.048785
 C         1.482391        -0.572495        -0.080962
 C         1.620380        -1.314302        -1.427484
 C         2.569436        -0.207801        -1.107394
 O         3.894484        -0.386957        -0.824665
 C         4.228740        -0.280208         0.519719
 C         4.419661        -1.680313         1.174518
 C         3.138916        -0.872654         1.411535
 O         1.948463        -1.403505         0.863757
 H         0.517234         1.267491         0.542725
 H         0.115303         0.655195        -0.980412
 H        -0.428005        -0.128769         0.531469
 H         1.879069        -2.338850        -1.143702
 H         0.997876        -1.170280        -2.315578
 H         2.365846         0.726642        -1.541710
 H         4.912054         0.601115         0.878401
 H         4.234509        -2.452017         0.420351
 H         5.145617        -1.966223         1.942963
 H         3.033217        -0.399585         2.299442
