19
Iteration:  1184charge 0 multiplicity 1
 C         0.310000         0.267975         0.221691
 C         1.487074        -0.561742        -0.283284
 C         1.588469        -1.278565        -1.606326
 C         2.572113        -0.136939        -1.155291
 O         3.840807        -0.595127        -0.809829
 C         4.157444        -0.322488         0.517021
 C         4.516342        -1.557597         1.316966
 C         3.120381        -0.860978         1.466103
 O         1.973870        -1.384186         0.864100
 H         0.856146         0.720907         1.100832
 H         0.047385         1.065051        -0.434993
 H        -0.584752        -0.281701         0.348603
 H         2.117081        -2.244644        -1.621642
 H         0.950452        -0.864692        -2.378842
 H         2.430394         0.850426        -1.771236
 H         4.704556         0.627925         0.752941
 H         4.440321        -2.442131         0.671953
 H         5.307811        -1.633250         2.071441
 H         3.107162        -0.157042         2.390792
