19
Iteration:  2988charge 0 multiplicity 1
 C         0.282895         0.385777         0.238392
 C         1.409507        -0.529491        -0.272961
 C         1.553881        -1.222590        -1.600879
 C         2.568332        -0.119278        -1.126193
 O         3.938908        -0.683321        -0.821182
 C         4.225289        -0.369607         0.510649
 C         4.477788        -1.497391         1.365766
 C         3.101366        -0.823016         1.450378
 O         1.999962        -1.504566         0.797983
 H         0.635150         1.348863         0.418601
 H        -0.554678         0.272820        -0.532653
 H         0.019673        -0.006784         1.199774
 H         1.914523        -2.306755        -1.459238
 H         0.986331        -0.887781        -2.473475
 H         2.629754         0.887588        -1.655256
 H         4.670027         0.557512         0.539880
 H         4.461324        -2.404973         0.805456
 H         5.316451        -1.435027         2.070607
 H         2.908686        -0.347660         2.393990
