19
Iteration:  4564
 C         0.268553         0.185743         0.393090
 C         1.538087        -0.545278        -0.277891
 C         1.500151        -1.049900        -1.634809
 C         2.576787        -0.163183        -1.221422
 O         3.997743        -0.713451        -0.928403
 C         4.251211        -0.471040         0.457172
 C         4.354356        -1.524065         1.474570
 C         3.126855        -0.720885         1.399699
 O         1.981902        -1.372109         0.846240
 H        -0.311042         1.004090        -0.200208
 H        -0.585211        -0.586115         0.557623
 H         0.594915         0.650679         1.362066
 H         1.810561        -2.131275        -1.772301
 H         0.968230        -0.740347        -2.515463
 H         2.795714         0.775278        -1.693499
 H         4.848190         0.380954         0.652876
 H         4.216056        -2.522527         0.997731
 H         5.069880        -1.537926         2.338024
 H         2.969134         0.107367         2.215838
