19
Iteration:  4113charge 0 multiplicity 1
 C         0.463198         0.452833         0.187167
 C         1.501061        -0.632158        -0.207495
 C         1.623477        -1.268473        -1.653904
 C         2.489796        -0.123880        -1.180012
 O         3.891067        -0.491354        -0.867604
 C         4.129280        -0.378352         0.516768
 C         4.461370        -1.574834         1.280956
 C         3.141499        -0.978514         1.493794
 O         1.879753        -1.497506         0.893758
 H        -0.011421         0.899568        -0.687394
 H        -0.327518         0.097217         0.909358
 H         0.978730         1.306080         0.693764
 H         2.147064        -2.210965        -1.545428
 H         0.805781        -1.023497        -2.303677
 H         2.519173         0.958765        -1.339244
 H         4.564180         0.683674         0.793494
 H         4.726431        -2.530355         0.940978
 H         5.093563        -1.416896         2.137035
 H         2.887259        -0.339140         2.449222
