19
Iteration:  1345charge 0 multiplicity 1
 C         0.397589         0.297910         0.200159
 C         1.508313        -0.627816        -0.210219
 C         1.608598        -1.244796        -1.628893
 C         2.490011        -0.155260        -1.220539
 O         3.807455        -0.481078        -0.853813
 C         4.164238        -0.368727         0.508709
 C         4.519881        -1.596874         1.348934
 C         3.231907        -0.891772         1.494517
 O         1.922735        -1.379851         0.900822
 H         0.766564         0.938964         0.940468
 H         0.123271         0.848879        -0.737249
 H        -0.670143        -0.192558         0.239324
 H         1.965776        -2.275537        -1.604602
 H         0.906091        -0.886708        -2.399816
 H         2.307011         0.858613        -1.671967
 H         4.721641         0.496697         0.635380
 H         4.518815        -2.587758         0.869179
 H         5.112693        -1.428457         2.256328
 H         2.955534        -0.377929         2.529946
