19
Iteration:  3624charge 0 multiplicity 1
 C         0.312510         0.368433         0.098819
 C         1.468774        -0.629946        -0.231920
 C         1.521705        -1.180029        -1.621351
 C         2.509635        -0.149334        -1.189851
 O         3.869595        -0.507689        -0.821832
 C         4.213832        -0.423996         0.488379
 C         4.469057        -1.649185         1.340043
 C         3.209093        -0.897992         1.581749
 O         2.019539        -1.398442         0.902983
 H         0.213884         1.064202        -0.662040
 H        -0.615430        -0.268476         0.190445
 H         0.580098         0.957303         0.957782
 H         1.843584        -2.111536        -2.036879
 H         0.765261        -0.836724        -2.376898
 H         2.496388         0.895791        -1.548669
 H         4.772644         0.493363         0.933029
 H         4.348504        -2.631299         0.774912
 H         5.297376        -1.537752         2.100719
 H         3.054988        -0.214475         2.501975
