19
Iteration:  2575
 C         0.263646         0.324642         0.070176
 C         1.476892        -0.568720        -0.145623
 C         1.540482        -1.197194        -1.589351
 C         2.590144        -0.202152        -1.131563
 O         3.880349        -0.676281        -0.858031
 C         4.208240        -0.289851         0.527425
 C         4.532400        -1.543881         1.259796
 C         3.174945        -0.879410         1.515492
 O         1.945835        -1.352990         0.915056
 H        -0.139973        -0.046497         1.068309
 H         0.659825         1.341815         0.274637
 H        -0.355877         0.091804        -0.763447
 H         1.892972        -2.323910        -1.768838
 H         0.723815        -0.954727        -2.307724
 H         2.471857         0.773078        -1.680226
 H         4.516021         0.648214         0.716452
 H         4.651983        -2.503883         0.671854
 H         5.316775        -1.363607         2.045013
 H         3.040314        -0.345813         2.478917
