19
Iteration:  4521charge 0 multiplicity 1
 C         0.450569         0.386211         0.161300
 C         1.507275        -0.557833        -0.177297
 C         1.487635        -1.198447        -1.628748
 C         2.535830        -0.089690        -1.146537
 O         3.838047        -0.632933        -0.835815
 C         4.133173        -0.337802         0.529661
 C         4.475325        -1.592751         1.353398
 C         3.145841        -0.868115         1.489235
 O         2.052196        -1.479500         0.835821
 H         0.080879         0.946986        -0.748285
 H        -0.474965        -0.286412         0.337730
 H         0.594520         1.110301         0.962418
 H         2.009676        -2.234718        -1.745939
 H         0.569432        -1.174770        -2.262119
 H         2.444614         0.879470        -1.637735
 H         4.636384         0.575641         0.665642
 H         4.366501        -2.516916         0.761478
 H         5.382250        -1.574646         2.022555
 H         2.760513        -0.257817         2.394613
