19
Iteration:  1872
 C         0.332585         0.320752         0.177619
 C         1.458445        -0.554058        -0.207710
 C         1.724742        -1.359157        -1.497680
 C         2.522189        -0.185087        -1.207856
 O         3.969679        -0.334450        -0.900806
 C         4.255340        -0.379163         0.527242
 C         4.361700        -1.725405         1.220673
 C         3.141830        -0.866464         1.438617
 O         1.883080        -1.335993         0.922704
 H         0.442566         1.072713         0.839083
 H        -0.111934         0.726693        -0.644658
 H        -0.405590        -0.319053         0.779689
 H         2.190734        -2.317845        -1.155827
 H         1.038163        -1.319073        -2.396180
 H         2.163230         0.778563        -1.559739
 H         4.737281         0.456348         0.842629
 H         4.133254        -2.695279         0.748155
 H         5.077020        -1.829846         2.066519
 H         2.970992        -0.261260         2.433560
