19
Iteration:   613
 C         0.410702         0.389257         0.261153
 C         1.464754        -0.597140        -0.216958
 C         1.562062        -1.256634        -1.684264
 C         2.511263        -0.185455        -1.195652
 O         3.859498        -0.581606        -0.866644
 C         4.156266        -0.314369         0.518695
 C         4.482907        -1.479643         1.408130
 C         3.151022        -0.891239         1.516696
 O         2.013766        -1.488065         0.779801
 H         0.711620         0.825903         1.235086
 H         0.204659         1.032600        -0.606289
 H        -0.553486        -0.257875         0.458322
 H         1.918732        -2.255223        -1.686005
 H         0.729461        -0.935291        -2.263883
 H         2.386362         0.835328        -1.641128
 H         4.718136         0.537601         0.577158
 H         4.602009        -2.470850         0.988907
 H         4.935699        -1.316401         2.370598
 H         2.946466        -0.292347         2.376998
