19
Iteration:  3785charge 0 multiplicity 1
 C         0.469599         0.376290         0.284842
 C         1.479499        -0.591256        -0.224143
 C         1.542487        -1.208956        -1.596914
 C         2.581528        -0.213497        -1.227349
 O         3.864926        -0.558009        -0.853393
 C         4.126729        -0.327806         0.549289
 C         4.379305        -1.570005         1.356975
 C         3.075058        -0.837914         1.523834
 O         2.067096        -1.510790         0.727682
 H         0.074845         1.062607        -0.508486
 H        -0.354855        -0.273099         0.810290
 H         0.780205         1.192609         0.995546
 H         1.895003        -2.140703        -1.527594
 H         0.887151        -0.735227        -2.304116
 H         2.568225         0.708110        -1.759500
 H         4.565271         0.658396         0.783439
 H         4.344481        -2.457216         0.683615
 H         5.209724        -1.686074         2.174742
 H         2.707056        -0.187926         2.378889
