19
Iteration:  3460
 C         0.166049         0.318206         0.105748
 C         1.450316        -0.585624        -0.148125
 C         1.595536        -1.152072        -1.479261
 C         2.631495        -0.170246        -1.187087
 O         3.969446        -0.565325        -0.880194
 C         4.201310        -0.324039         0.530527
 C         4.441012        -1.648734         1.261820
 C         3.189700        -0.920823         1.420668
 O         1.957976        -1.359557         0.927643
 H         0.163500         1.161013        -0.507359
 H        -0.711714        -0.421349        -0.106423
 H         0.234544         0.768766         1.069634
 H         1.902790        -2.140917        -1.466046
 H         0.884752        -1.021571        -2.299748
 H         2.540224         0.788361        -1.619655
 H         4.730517         0.574958         0.687603
 H         4.435928        -2.549379         0.635874
 H         5.165256        -1.700098         2.134462
 H         3.151567        -0.289766         2.383178
