19
Iteration:   969
 C         0.192852         0.264411         0.028798
 C         1.433610        -0.538991        -0.225863
 C         1.622864        -1.378790        -1.486696
 C         2.480757        -0.127245        -1.196681
 O         3.928227        -0.342953        -0.802601
 C         4.253494        -0.399342         0.553107
 C         4.512706        -1.732864         1.223985
 C         3.255885        -0.949393         1.470917
 O         1.942970        -1.234404         0.972972
 H         0.614948         1.156764         0.636373
 H        -0.301134         0.599083        -0.956703
 H        -0.618151        -0.046627         0.665023
 H         2.057298        -2.357900        -1.311624
 H         0.959584        -1.266837        -2.343083
 H         2.328510         0.545265        -2.011868
 H         4.769347         0.593206         0.883348
 H         4.264542        -2.558462         0.564903
 H         5.274598        -1.935958         1.975163
 H         3.125735        -0.560103         2.487992
