19
Iteration:  1479charge 0 multiplicity 1
 C         0.317711         0.396107         0.137882
 C         1.457560        -0.609434        -0.252266
 C         1.576989        -1.333335        -1.552509
 C         2.569620        -0.204157        -1.190912
 O         3.860057        -0.411291        -0.805018
 C         4.159144        -0.327917         0.579738
 C         4.516595        -1.687075         1.273080
 C         3.175666        -0.916424         1.486731
 O         1.985961        -1.341881         0.850093
 H         0.553747         1.116113         0.966582
 H         0.026504         0.894098        -0.739208
 H        -0.599212        -0.210876         0.535408
 H         1.754515        -2.390520        -1.550679
 H         0.838974        -1.170989        -2.315725
 H         2.338247         0.763800        -1.707466
 H         4.670709         0.495221         0.829672
 H         4.656114        -2.580046         0.679413
 H         5.303817        -1.764821         2.027601
 H         3.079908        -0.337410         2.492243
