19
Iteration:  4765
 C         0.223980         0.246017         0.106652
 C         1.463673        -0.540660        -0.202915
 C         1.596784        -1.048788        -1.551246
 C         2.648417        -0.117592        -1.104029
 O         3.823014        -0.755288        -0.869846
 C         4.239749        -0.423404         0.474589
 C         4.554702        -1.611875         1.375996
 C         3.185576        -0.809581         1.395289
 O         1.932022        -1.341991         0.897494
 H        -0.319352         0.928256        -0.577930
 H        -0.557729        -0.454918         0.379894
 H         0.052935         0.864124         0.972407
 H         2.067853        -2.077056        -1.737314
 H         0.922387        -0.669188        -2.300202
 H         2.676486         0.943055        -1.512522
 H         4.791850         0.506207         0.714071
 H         4.532662        -2.672413         1.004748
 H         5.267792        -1.427329         2.186091
 H         2.969195        -0.148701         2.215190
