19
Iteration:  2592charge 0 multiplicity 1
 C         0.239657         0.277365         0.110838
 C         1.467914        -0.621147        -0.267676
 C         1.555093        -1.255476        -1.585344
 C         2.552960        -0.187220        -1.153882
 O         3.870881        -0.584423        -0.796943
 C         4.227257        -0.339486         0.459941
 C         4.546437        -1.609450         1.314761
 C         3.223762        -0.803593         1.426387
 O         1.946588        -1.318187         1.001600
 H        -0.495449        -0.125277         0.766746
 H         0.535075         1.292813         0.412046
 H        -0.531022         0.423173        -0.715867
 H         1.754706        -2.228963        -1.670916
 H         0.946515        -0.806887        -2.319622
 H         2.660848         0.799765        -1.494115
 H         5.032344         0.543087         0.608945
 H         4.488616        -2.385183         0.598680
 H         5.041590        -1.701069         2.222406
 H         3.169069        -0.331547         2.382250
