19
Iteration:   148
 C         0.304716         0.252423         0.139756
 C         1.565955        -0.590096        -0.207914
 C         1.609420        -1.361118        -1.468100
 C         2.553773        -0.086509        -1.140232
 O         3.896105        -0.503326        -0.933960
 C         4.251841        -0.347891         0.515475
 C         4.272118        -1.641780         1.285248
 C         3.143720        -0.736675         1.495301
 O         2.002534        -1.356347         0.865828
 H         0.537336         1.274069         0.583209
 H        -0.419976         0.385259        -0.571857
 H        -0.104429        -0.332537         1.008539
 H         2.227843        -2.247428        -1.470164
 H         0.712466        -1.239682        -2.111793
 H         2.388384         0.869508        -1.731524
 H         5.119838         0.383003         0.559455
 H         4.219902        -2.459190         0.480526
 H         5.040704        -1.913139         2.091731
 H         2.920865        -0.247534         2.534790
