19
Iteration:  3172
 C         0.222395         0.272804         0.197015
 C         1.451735        -0.546499        -0.153514
 C         1.515351        -1.301807        -1.488332
 C         2.622625        -0.190459        -1.229579
 O         3.967780        -0.480554        -0.861736
 C         4.305455        -0.393211         0.516657
 C         4.373468        -1.615255         1.247807
 C         3.170104        -0.799069         1.446446
 O         2.016587        -1.354389         0.849388
 H         0.475463         0.745747         1.138640
 H        -0.218369         0.973394        -0.628559
 H        -0.671273        -0.337097         0.498301
 H         1.687224        -2.384920        -1.583098
 H         0.837155        -1.041253        -2.263760
 H         2.515668         0.797330        -1.738575
 H         4.869333         0.528541         0.794710
 H         4.146060        -2.623478         0.823944
 H         5.042775        -1.587794         2.102170
 H         3.079645        -0.253667         2.333089
