19
Iteration:   893
 C         0.286166         0.238820         0.259314
 C         1.419835        -0.608146        -0.257954
 C         1.589918        -1.248118        -1.584713
 C         2.586271        -0.121472        -1.194207
 O         3.914558        -0.571645        -0.897030
 C         4.170396        -0.378690         0.528305
 C         4.450856        -1.564953         1.409233
 C         3.189275        -0.802849         1.517156
 O         2.021609        -1.370767         0.753568
 H         0.610292         0.965917         1.062487
 H        -0.164315         0.949338        -0.566285
 H        -0.518560        -0.333741         0.732204
 H         1.819381        -2.296719        -1.608694
 H         0.820064        -0.986693        -2.287532
 H         2.464618         0.828778        -1.692298
 H         4.775621         0.598160         0.623748
 H         4.373387        -2.560250         1.017021
 H         5.121558        -1.505838         2.239599
 H         2.850368        -0.185933         2.362062
