19
Iteration:   698
 C         0.175052         0.204931         0.108790
 C         1.463581        -0.536199        -0.216782
 C         1.665562        -1.295247        -1.551944
 C         2.512154        -0.091714        -1.157621
 O         3.878568        -0.457832        -0.857380
 C         4.292083        -0.421538         0.509351
 C         4.432991        -1.729493         1.276214
 C         3.247545        -0.894419         1.495073
 O         1.963814        -1.195850         0.964402
 H         0.185676         1.073778         0.626572
 H        -0.342778         0.555497        -0.890343
 H        -0.452781        -0.524384         0.531038
 H         2.109186        -2.257744        -1.701695
 H         0.993202        -1.079230        -2.348031
 H         2.283020         0.824793        -1.715934
 H         4.900794         0.454725         0.731839
 H         4.402914        -2.562295         0.593736
 H         5.203016        -1.803790         2.030487
 H         3.211915        -0.475536         2.599253
