19
Iteration:  3554
 C         0.479302         0.316661         0.344868
 C         1.513870        -0.573285        -0.306205
 C         1.470682        -1.227277        -1.641934
 C         2.539899        -0.182352        -1.276684
 O         3.888698        -0.558191        -0.805925
 C         4.167266        -0.328390         0.565798
 C         4.407652        -1.595054         1.442187
 C         3.064560        -0.873282         1.495976
 O         2.048886        -1.400479         0.727832
 H        -0.241298         0.849482        -0.428214
 H         0.069290        -0.420933         0.985825
 H         0.968483         1.189606         0.868053
 H         1.683409        -2.258950        -1.847446
 H         0.648228        -0.920526        -2.374264
 H         2.654253         0.698037        -1.950999
 H         4.806811         0.612035         0.661260
 H         4.361908        -2.502141         0.937225
 H         5.042125        -1.449310         2.300557
 H         2.726388        -0.333495         2.325739
