19
Iteration:  2769
 C         0.345344         0.300739         0.367974
 C         1.507224        -0.578207        -0.241973
 C         1.566417        -1.239825        -1.521090
 C         2.570100        -0.159820        -1.208854
 O         3.951235        -0.733310        -0.948453
 C         4.116353        -0.350850         0.424096
 C         4.348477        -1.472424         1.480722
 C         3.066532        -0.693811         1.397904
 O         2.079970        -1.418307         0.740224
 H         0.104671        -0.370862         1.168854
 H         0.831206         1.185130         0.937661
 H        -0.415566         0.523168        -0.396331
 H         1.931001        -2.274669        -1.415470
 H         0.642235        -1.078295        -2.187089
 H         2.599249         0.858513        -1.680387
 H         4.748123         0.582197         0.707615
 H         4.243055        -2.548273         1.073526
 H         5.291522        -1.417896         2.149159
 H         2.721146        -0.135268         2.294910
