19
Iteration:  2538
 C         0.428655         0.379757         0.286591
 C         1.472811        -0.631906        -0.209365
 C         1.553711        -1.322467        -1.637601
 C         2.503193        -0.203623        -1.127556
 O         3.872892        -0.575610        -0.881866
 C         4.210878        -0.340898         0.476946
 C         4.421746        -1.513883         1.422413
 C         3.122622        -0.747417         1.467317
 O         1.985438        -1.500692         0.759732
 H         0.226124         0.352363         1.331094
 H         0.701607         1.412243         0.034603
 H        -0.509589         0.409659        -0.312796
 H         1.960219        -2.255592        -1.579597
 H         0.919067        -0.974285        -2.430622
 H         2.508425         0.711224        -1.689336
 H         4.762587         0.686589         0.656310
 H         4.600497        -2.445938         0.940371
 H         5.134540        -1.339802         2.213526
 H         2.835440        -0.208999         2.360986
