19
Iteration:  3183
 C         0.244862         0.324123         0.194782
 C         1.476777        -0.628966        -0.222606
 C         1.505576        -1.284780        -1.500664
 C         2.565980        -0.202227        -1.168965
 O         3.925640        -0.503955        -0.861508
 C         4.290356        -0.298914         0.521143
 C         4.442573        -1.663523         1.285299
 C         3.159239        -0.779968         1.459562
 O         2.010656        -1.384488         0.842680
 H         0.499371         1.312316         0.719715
 H        -0.104579         0.819862        -0.848154
 H        -0.487523        -0.308238         0.733224
 H         1.856647        -2.313872        -1.548616
 H         0.793946        -0.811939        -2.135839
 H         2.370856         0.791396        -1.643324
 H         4.923354         0.633486         0.764251
 H         4.347992        -2.638674         0.686743
 H         5.181046        -1.835318         2.067357
 H         2.856872        -0.450607         2.402451
