19
Iteration:  2076
 C         0.202447         0.190809        -0.005564
 C         1.462681        -0.567603        -0.201279
 C         1.655877        -1.235995        -1.581148
 C         2.607546        -0.097969        -1.081702
 O         3.940003        -0.480748        -0.825862
 C         4.189550        -0.402175         0.511649
 C         4.414988        -1.773096         1.159330
 C         3.267266        -0.837337         1.496242
 O         1.904637        -1.206677         1.050812
 H         0.427478         1.065498         0.746579
 H        -0.300729         0.508984        -0.959211
 H        -0.501828        -0.439529         0.566963
 H         2.111966        -2.220658        -1.688503
 H         0.892641        -1.184961        -2.368250
 H         2.562951         0.968232        -1.328622
 H         4.805825         0.614755         0.794022
 H         4.175240        -2.518168         0.383539
 H         4.997764        -2.161803         1.983712
 H         3.151315        -0.371285         2.427535
