19
Iteration:   399charge 0 multiplicity 1
 C         0.330828         0.278788         0.162692
 C         1.476627        -0.593133        -0.213848
 C         1.663106        -1.352240        -1.555497
 C         2.564503        -0.215014        -1.228668
 O         3.865119        -0.386013        -0.887381
 C         4.215669        -0.386846         0.478044
 C         4.416245        -1.695323         1.302994
 C         3.158747        -0.830193         1.528083
 O         1.922169        -1.272642         0.912519
 H         0.688126         1.135956         0.851298
 H        -0.474217         0.554868        -0.592432
 H        -0.282973        -0.270661         0.902270
 H         2.013793        -2.345234        -1.456788
 H         0.987722        -0.946999        -2.273406
 H         2.357959         0.665085        -1.801282
 H         5.021686         0.410585         0.614623
 H         4.344242        -2.652495         0.835480
 H         5.151272        -1.519668         2.063583
 H         3.123060        -0.385849         2.485624
