19
Iteration:  1605
 C         0.267862         0.242297         0.207194
 C         1.464673        -0.562427        -0.207927
 C         1.625585        -1.203361        -1.614253
 C         2.623132        -0.093342        -1.175973
 O         3.827830        -0.612857        -0.833482
 C         4.201785        -0.356164         0.518867
 C         4.427277        -1.624264         1.302168
 C         3.122767        -0.850636         1.531652
 O         2.044529        -1.338461         0.845027
 H         0.533104         1.028342         0.923247
 H        -0.185122         0.799664        -0.713151
 H        -0.510190        -0.408358         0.504791
 H         2.111319        -2.166074        -1.751522
 H         0.943589        -0.923946        -2.417223
 H         2.579494         0.813488        -1.791621
 H         4.789802         0.609493         0.865625
 H         4.310483        -2.519481         0.692550
 H         5.160252        -1.789274         2.087252
 H         2.951562        -0.276441         2.397068
