19
Iteration:  2310
 C         0.211443         0.316011         0.050189
 C         1.534099        -0.580510        -0.211521
 C         1.602639        -1.255498        -1.496115
 C         2.592058        -0.100135        -1.105343
 O         3.867025        -0.592320        -0.846269
 C         4.205666        -0.342743         0.544895
 C         4.574591        -1.635670         1.221049
 C         3.147818        -0.916320         1.464467
 O         1.916980        -1.311631         0.976210
 H         0.100339         0.761392         0.980575
 H         0.330457         1.032346        -0.812272
 H        -0.715109        -0.336838        -0.230106
 H         1.991037        -2.245483        -1.660587
 H         0.802514        -0.993490        -2.195021
 H         2.500448         0.848253        -1.715149
 H         4.858069         0.528276         0.692689
 H         4.347389        -2.557441         0.576971
 H         5.409077        -1.501717         1.984014
 H         2.851067        -0.321757         2.417925
