19
Iteration:  3659charge 0 multiplicity 1
 C         0.173647         0.230295         0.221316
 C         1.499495        -0.481034        -0.152714
 C         1.664302        -1.188822        -1.479330
 C         2.618196        -0.046443        -1.206377
 O         3.965655        -0.625207        -0.916841
 C         4.242717        -0.436296         0.458726
 C         4.312922        -1.687116         1.303571
 C         3.157961        -0.837591         1.436924
 O         1.977451        -1.312184         0.876498
 H        -0.069035         1.107036        -0.393579
 H        -0.709250        -0.457334         0.097512
 H         0.194749         0.354776         1.317123
 H         2.338085        -2.033243        -1.326490
 H         0.947543        -1.025314        -2.382452
 H         2.762643         0.982387        -1.694594
 H         4.641127         0.567932         0.720382
 H         4.225288        -2.553463         0.706457
 H         5.019096        -1.923224         2.105700
 H         2.971773        -0.083804         2.227632
