19
Iteration:   561
 C         0.431696         0.313312         0.339293
 C         1.467156        -0.620573        -0.235361
 C         1.509470        -1.171439        -1.681609
 C         2.565556        -0.211622        -1.250789
 O         3.872803        -0.634374        -0.842807
 C         4.149917        -0.319847         0.538641
 C         4.387379        -1.464304         1.445908
 C         3.077594        -0.810799         1.450591
 O         2.075018        -1.515986         0.755832
 H         1.116888         1.163433         0.746290
 H        -0.075097         0.710475        -0.406142
 H        -0.165229        -0.190773         1.151426
 H         1.948456        -2.153785        -1.777319
 H         0.801551        -0.735736        -2.376430
 H         2.510193         0.814320        -1.643296
 H         4.546978         0.745909         0.469256
 H         4.667131        -2.444852         1.091980
 H         5.055935        -1.209960         2.253726
 H         2.799282        -0.309996         2.315786
