19
Iteration:  3633charge 0 multiplicity 1
 C         0.259437         0.318904         0.115816
 C         1.514165        -0.597373        -0.200308
 C         1.529903        -1.194065        -1.612141
 C         2.566847        -0.161304        -1.135058
 O         3.829681        -0.533753        -0.801571
 C         4.296880        -0.412639         0.535697
 C         4.413046        -1.668782         1.273528
 C         3.198735        -0.821186         1.505916
 O         2.010599        -1.350174         0.854145
 H         0.103103         1.058138        -0.632714
 H        -0.715940        -0.226447         0.089890
 H         0.520254         0.636564         1.110833
 H         1.902502        -2.236958        -1.722744
 H         0.867491        -0.770109        -2.309819
 H         2.608980         0.857299        -1.449421
 H         4.964300         0.609169         0.658947
 H         4.296765        -2.752148         0.866445
 H         5.254940        -1.681991         2.008797
 H         2.843760        -0.340680         2.458274
