19
Iteration:  4065charge 0 multiplicity 1
 C         0.368217         0.237769         0.308279
 C         1.542739        -0.555592        -0.273986
 C         1.438747        -1.125222        -1.593703
 C         2.636525        -0.162284        -1.194406
 O         3.941931        -0.648099        -0.889973
 C         4.167975        -0.367241         0.519037
 C         4.336118        -1.600200         1.380214
 C         3.083398        -0.743376         1.470568
 O         2.076470        -1.389035         0.796321
 H        -0.106201         0.807460        -0.480217
 H        -0.268617        -0.548937         0.555911
 H         0.441159         0.779107         1.255482
 H         1.807880        -2.183416        -1.592668
 H         0.669365        -0.578404        -2.272032
 H         2.851502         0.728599        -1.754199
 H         4.778344         0.446301         0.605362
 H         4.374126        -2.689403         0.976186
 H         5.089639        -1.536010         2.219902
 H         2.627872        -0.265666         2.306355
