19
Iteration:  1811charge 0 multiplicity 1
 C         0.191257         0.312528        -0.000754
 C         1.436483        -0.609831        -0.177935
 C         1.750130        -1.360443        -1.404698
 C         2.515386        -0.099450        -1.151502
 O         3.932247        -0.360952        -0.807982
 C         4.276603        -0.409894         0.494643
 C         4.417733        -1.781123         1.062216
 C         3.196259        -0.940270         1.447394
 O         1.883794        -1.209635         1.059203
 H         0.478372         1.166097         0.761332
 H        -0.133393         0.772531        -1.032970
 H        -0.626084        -0.309893         0.311364
 H         2.269491        -2.326689        -1.402021
 H         1.065583        -1.301362        -2.233355
 H         2.442506         0.800988        -1.717572
 H         4.819120         0.471699         1.013277
 H         4.327235        -2.685182         0.534206
 H         5.099538        -1.704055         1.875139
 H         3.230869        -0.510129         2.366972
