19
Iteration:  2638charge 0 multiplicity 1
 C         0.283981         0.211581         0.169574
 C         1.533912        -0.599655        -0.162124
 C         1.635496        -1.319101        -1.455282
 C         2.521383        -0.162104        -1.219787
 O         3.920449        -0.443860        -1.012887
 C         4.285286        -0.420407         0.518090
 C         4.304874        -1.726854         1.329968
 C         3.153299        -0.660697         1.464689
 O         1.989474        -1.310398         0.940200
 H        -0.622404        -0.266052         0.020317
 H         0.252127         0.667475         1.168737
 H         0.086272         1.091963        -0.414884
 H         2.136320        -2.314136        -1.338451
 H         0.771518        -1.273832        -2.047271
 H         2.475300         0.647443        -1.905671
 H         4.916729         0.466452         0.696421
 H         4.096265        -2.655594         0.819535
 H         5.212709        -1.648284         1.890416
 H         2.940115         0.056799         2.251083
