19
Iteration:  4088
 C         0.400172         0.371748         0.280899
 C         1.447897        -0.589350        -0.243253
 C         1.576245        -1.228939        -1.561910
 C         2.537064        -0.130289        -1.178625
 O         3.855232        -0.595158        -0.850973
 C         4.202437        -0.338446         0.549138
 C         4.418470        -1.607033         1.376132
 C         3.138538        -0.811602         1.471969
 O         2.007337        -1.474803         0.710621
 H        -0.058051         0.830544        -0.599580
 H        -0.329497        -0.026114         0.864087
 H         0.756659         1.153070         0.943663
 H         1.929213        -2.335376        -1.559328
 H         0.998285        -0.794452        -2.419950
 H         2.592243         0.803652        -1.671231
 H         4.730738         0.562075         0.669418
 H         4.469740        -2.607724         0.857808
 H         5.143470        -1.721401         2.267523
 H         2.752951        -0.171894         2.275376
