19
Iteration:  4469charge 0 multiplicity 1
 C         0.394991         0.436876         0.224121
 C         1.434008        -0.533017        -0.185164
 C         1.679643        -1.357000        -1.461899
 C         2.556161        -0.188147        -1.238583
 O         3.903451        -0.440441        -0.845796
 C         4.129490        -0.375168         0.533296
 C         4.462149        -1.614592         1.240637
 C         3.120211        -0.959185         1.424833
 O         1.926794        -1.375080         0.838926
 H        -0.198458         1.055920        -0.486131
 H        -0.349583        -0.087813         0.817202
 H         0.882027         1.058166         0.915394
 H         1.999143        -2.461268        -1.490202
 H         1.054067        -1.400109        -2.417194
 H         2.343225         0.821189        -1.793643
 H         4.653307         0.511840         0.806950
 H         4.394744        -2.477859         0.583182
 H         5.152053        -1.804855         2.090460
 H         2.903022        -0.507262         2.355088
