19
Iteration:  1276
 C         0.236301         0.211646         0.181946
 C         1.466996        -0.594081        -0.215981
 C         1.653419        -1.339018        -1.562111
 C         2.570043        -0.138179        -1.292168
 O         3.932680        -0.336848        -0.867901
 C         4.174719        -0.410546         0.556639
 C         4.499034        -1.764224         1.222650
 C         3.183914        -0.907621         1.506329
 O         1.880170        -1.173532         0.975444
 H         0.736167         0.928140         0.791395
 H        -0.221353         0.611237        -0.783543
 H        -0.486969        -0.317212         0.632734
 H         2.231848        -2.223969        -1.301126
 H         0.943741        -1.396018        -2.394303
 H         2.472025         0.844320        -1.561397
 H         4.919762         0.461327         0.836096
 H         4.095772        -2.663717         0.755412
 H         5.351205        -1.821643         1.898705
 H         2.974845        -0.366181         2.358497
