19
Iteration:  3558
 C         0.479595         0.362764         0.350319
 C         1.485740        -0.571909        -0.291684
 C         1.489249        -1.221550        -1.648499
 C         2.548558        -0.216754        -1.327697
 O         3.871538        -0.559737        -0.787605
 C         4.173892        -0.325602         0.585507
 C         4.382393        -1.565963         1.435545
 C         3.117979        -0.885285         1.497972
 O         2.032939        -1.416337         0.712529
 H        -0.234169         0.672603        -0.290797
 H        -0.105519        -0.371190         0.984081
 H         0.977483         1.128704         0.835835
 H         1.771212        -2.295085        -1.770659
 H         0.862753        -0.897177        -2.406557
 H         2.556546         0.750796        -1.795412
 H         4.712488         0.682697         0.590880
 H         4.379573        -2.557774         0.815833
 H         5.083232        -1.568372         2.302432
 H         2.834276        -0.266005         2.432836
