19
Iteration:  1907
 C         0.357545         0.253469         0.204199
 C         1.467556        -0.578759        -0.226929
 C         1.610489        -1.163121        -1.582465
 C         2.590312        -0.179271        -1.172684
 O         3.855771        -0.614554        -0.847560
 C         4.160262        -0.363042         0.552839
 C         4.476238        -1.593266         1.304814
 C         3.104226        -0.803933         1.498742
 O         2.015008        -1.352849         0.815639
 H         0.668044         0.845103         0.978276
 H        -0.047120         0.784007        -0.628756
 H        -0.428985        -0.468862         0.417293
 H         1.844692        -2.239205        -1.762159
 H         0.845407        -0.910452        -2.323078
 H         2.419752         0.817292        -1.521960
 H         4.637818         0.557226         0.865334
 H         4.154174        -2.514420         0.928804
 H         5.288880        -1.525383         1.975332
 H         2.926929        -0.160577         2.357812
