19
Iteration:  4582charge 0 multiplicity 1
 C         0.331092         0.192218         0.320169
 C         1.582750        -0.556653        -0.245526
 C         1.539676        -1.090666        -1.650559
 C         2.614588        -0.144718        -1.215614
 O         3.838559        -0.714560        -0.916360
 C         4.233817        -0.411335         0.434479
 C         4.311679        -1.586935         1.449206
 C         3.092089        -0.712938         1.501834
 O         2.074108        -1.349540         0.816704
 H        -0.021894         0.778358        -0.462270
 H        -0.315637        -0.620945         0.494869
 H         0.436333         0.695133         1.336604
 H         1.665650        -2.132796        -1.743096
 H         0.698980        -0.592333        -2.100387
 H         2.771285         0.886549        -1.626800
 H         5.014034         0.457865         0.593602
 H         4.092557        -2.598746         1.188672
 H         5.147651        -1.439072         2.137423
 H         2.881868        -0.107314         2.359100
