19
Iteration:  1737
 C         0.209694         0.268514         0.139272
 C         1.541698        -0.566912        -0.187074
 C         1.623406        -1.201586        -1.584197
 C         2.513742        -0.104474        -1.116172
 O         3.881794        -0.493104        -0.902095
 C         4.197255        -0.444073         0.445714
 C         4.410573        -1.675277         1.412553
 C         3.179681        -0.822748         1.436532
 O         2.052266        -1.398990         0.865862
 H         0.438758         1.033508         0.921345
 H        -0.041699         0.825965        -0.842548
 H        -0.643505        -0.315938         0.559489
 H         2.187561        -2.098538        -1.682750
 H         0.939478        -1.030776        -2.322494
 H         2.534522         0.948354        -1.399953
 H         4.799078         0.512547         0.763709
 H         4.113058        -2.648158         1.131537
 H         5.004573        -1.589128         2.296579
 H         3.052658        -0.234883         2.310403
