19
Iteration:  1532
 C         0.333764         0.210417         0.074223
 C         1.505142        -0.577139        -0.182373
 C         1.707165        -1.309656        -1.512309
 C         2.494515        -0.067914        -1.159891
 O         3.900770        -0.418792        -0.855223
 C         4.205862        -0.416641         0.472007
 C         4.344842        -1.746906         1.178061
 C         3.170428        -0.828779         1.573881
 O         1.957746        -1.235432         0.966607
 H         0.522506         0.874155         0.900730
 H        -0.067746         0.764825        -0.805472
 H        -0.540321        -0.548343         0.282235
 H         2.275318        -2.228408        -1.553990
 H         0.979876        -1.252185        -2.301827
 H         2.276633         0.864287        -1.755926
 H         4.819541         0.338710         0.796662
 H         3.990359        -2.598733         0.627926
 H         5.116153        -2.127926         1.833984
 H         3.190454        -0.194434         2.595533
