19
Iteration:  2120charge 0 multiplicity 1
 C         0.140440         0.174899         0.098283
 C         1.524415        -0.497500        -0.211017
 C         1.689226        -1.268715        -1.513072
 C         2.518412        -0.040060        -1.143053
 O         3.965676        -0.411591        -0.911135
 C         4.264912        -0.472614         0.522063
 C         4.347610        -1.835298         1.292751
 C         3.205207        -0.773275         1.498197
 O         1.995105        -1.268353         0.936268
 H        -0.108266         0.684352         1.139718
 H        -0.186506         0.868927        -0.714959
 H        -0.676638        -0.601862        -0.075941
 H         2.065528        -2.270395        -1.421679
 H         0.981338        -1.172662        -2.385616
 H         2.356103         0.835543        -1.756486
 H         5.124875         0.330095         0.990829
 H         3.810042        -2.680187         0.885405
 H         5.260116        -1.930203         1.841356
 H         3.164839        -0.050026         2.288118
