19
Iteration:    86
 C         0.404250         0.320735         0.185230
 C         1.518865        -0.584113        -0.149659
 C         1.540047        -1.170062        -1.510167
 C         2.613536        -0.189656        -1.129424
 O         3.855561        -0.706589        -0.875876
 C         4.066828        -0.285720         0.455824
 C         4.490288        -1.458420         1.344812
 C         3.116621        -0.806529         1.380561
 O         2.002327        -1.530644         0.857409
 H         0.397846         0.669869         1.165336
 H         0.416353         1.343258        -0.545840
 H        -0.513067        -0.171483        -0.028725
 H         1.828255        -2.195569        -1.441308
 H         0.812619        -0.947004        -2.297523
 H         2.548793         0.827820        -1.520623
 H         4.524157         0.640356         0.429949
 H         4.806774        -2.351835         0.823063
 H         5.104568        -1.186484         2.220908
 H         2.780894        -0.189658         2.284065
