19
Iteration:  1097
 C         0.436273         0.309588         0.309450
 C         1.521819        -0.614678        -0.206165
 C         1.576443        -1.186932        -1.592870
 C         2.604150        -0.150310        -1.195631
 O         3.939625        -0.711604        -0.834641
 C         4.078192        -0.280637         0.543826
 C         4.432165        -1.478089         1.363511
 C         3.062230        -0.781165         1.352581
 O         1.977656        -1.516944         0.770650
 H         0.805248         1.264196         0.942838
 H        -0.037082         0.814120        -0.527698
 H        -0.273381        -0.275155         0.920721
 H         1.873448        -2.215677        -1.716360
 H         0.666931        -1.020238        -2.157264
 H         2.570602         0.976230        -1.486162
 H         4.374852         0.870849         0.640460
 H         4.437199        -2.325172         0.689736
 H         5.057587        -1.460741         2.232131
 H         2.755697        -0.226207         2.302988
