19
Iteration:  4277charge 0 multiplicity 1
 C         0.437217         0.369196         0.233584
 C         1.471691        -0.606256        -0.231593
 C         1.538484        -1.205001        -1.584087
 C         2.636061        -0.211599        -1.151104
 O         3.921601        -0.543549        -0.875193
 C         4.195474        -0.286039         0.561427
 C         4.434125        -1.529560         1.322411
 C         3.087631        -0.961041         1.462878
 O         1.923426        -1.456116         0.782436
 H        -0.080387         0.785836        -0.585066
 H        -0.246789        -0.135072         0.828724
 H         0.773143         1.209855         0.847963
 H         1.548469        -2.320997        -1.537922
 H         0.790961        -0.899676        -2.302797
 H         2.469457         0.807924        -1.619961
 H         4.675916         0.730667         0.906684
 H         4.613564        -2.394996         0.696554
 H         5.061607        -1.707935         2.184308
 H         2.706643        -0.350471         2.417017
