19
Iteration:  2754charge 0 multiplicity 1
 C         0.455930         0.245785         0.338455
 C         1.555106        -0.561472        -0.185330
 C         1.489642        -1.247241        -1.561432
 C         2.601770        -0.212467        -1.256319
 O         3.812551        -0.642304        -0.892724
 C         4.200437        -0.357361         0.443416
 C         4.382620        -1.481424         1.440645
 C         3.095344        -0.726623         1.450408
 O         2.050208        -1.434707         0.777435
 H        -0.364188        -0.397686         0.753023
 H         0.751083         1.142383         0.872786
 H        -0.109291         0.744346        -0.504377
 H         1.811531        -2.267487        -1.625257
 H         0.864625        -0.936254        -2.286083
 H         2.524950         0.695458        -1.796568
 H         4.760630         0.609821         0.455067
 H         4.311805        -2.486312         1.194058
 H         4.928609        -1.225280         2.288039
 H         2.787697         0.007451         2.171280
