19
Iteration:  2811
 C         0.371306         0.275359         0.124542
 C         1.494487        -0.637955        -0.208833
 C         1.477719        -1.213891        -1.588440
 C         2.528060        -0.182912        -1.187917
 O         3.871624        -0.625689        -0.870026
 C         4.169858        -0.401051         0.506008
 C         4.501799        -1.524029         1.372686
 C         3.142770        -0.816430         1.505647
 O         2.031694        -1.356064         0.866262
 H         0.172626         0.261629         1.201891
 H         0.756893         1.333819         0.260215
 H        -0.621767         0.271538        -0.412575
 H         1.833018        -2.210470        -1.723197
 H         0.659879        -0.981486        -2.193297
 H         2.517205         0.865482        -1.496023
 H         4.712241         0.628740         0.508735
 H         4.578698        -2.490795         0.816363
 H         5.177977        -1.323374         2.237082
 H         2.967108        -0.072861         2.294022
