19
Iteration:  2952charge 0 multiplicity 1
 C         0.351516         0.245827         0.098925
 C         1.522296        -0.600718        -0.251332
 C         1.537582        -1.182042        -1.605015
 C         2.564318        -0.065103        -1.196538
 O         3.847333        -0.636576        -0.841659
 C         4.226292        -0.404521         0.460113
 C         4.491671        -1.595468         1.322007
 C         3.144969        -0.844995         1.551692
 O         1.964512        -1.325480         0.968014
 H         0.421543         1.308431         0.451083
 H        -0.450540         0.422092        -0.690840
 H        -0.204046        -0.401908         0.890143
 H         1.842380        -2.125612        -1.746483
 H         0.781600        -0.964971        -2.317048
 H         2.575328         0.939931        -1.601541
 H         4.730113         0.562445         0.858720
 H         4.483608        -2.471368         0.609433
 H         5.233638        -1.557057         2.155564
 H         2.973322        -0.384582         2.532802
