19
Iteration:   469
 C         0.186763         0.226423         0.044267
 C         1.455013        -0.590794        -0.204986
 C         1.630246        -1.335728        -1.470198
 C         2.570896        -0.115899        -1.187408
 O         3.856479        -0.492531        -0.911741
 C         4.220952        -0.355879         0.514089
 C         4.522179        -1.732012         1.290672
 C         3.276053        -0.839950         1.473432
 O         1.895114        -1.210942         0.990921
 H         0.387293         0.583793         1.020067
 H         0.226877         1.145407        -0.776712
 H        -0.772258        -0.323031        -0.097264
 H         2.289238        -2.228240        -1.619186
 H         0.748187        -0.954342        -1.982786
 H         2.396532         0.908680        -1.613497
 H         4.772302         0.447961         0.777575
 H         4.558421        -2.567372         0.548150
 H         5.284828        -1.736625         2.094876
 H         3.172396        -0.516486         2.585962
