19
Iteration:  3835
 C         0.252753         0.239177         0.244067
 C         1.466062        -0.631781        -0.228331
 C         1.563264        -1.089577        -1.728586
 C         2.549688        -0.119112        -1.202824
 O         3.920503        -0.661001        -0.882954
 C         4.209464        -0.396780         0.476671
 C         4.491481        -1.604251         1.420183
 C         3.168970        -0.789044         1.498859
 O         1.997349        -1.395731         0.908082
 H         0.295045         1.230159        -0.278256
 H        -0.702281        -0.138621         0.162312
 H         0.353949         0.745972         1.202910
 H         1.814202        -2.243365        -1.838079
 H         0.774157        -0.538343        -2.340960
 H         2.571457         0.954964        -1.658149
 H         4.821809         0.477708         0.658995
 H         4.308542        -2.578895         1.030167
 H         5.190835        -1.495582         2.245921
 H         2.908608        -0.246913         2.369933
