19
Iteration:  1854charge 0 multiplicity 1
 C         0.288127         0.292034         0.043891
 C         1.479341        -0.597147        -0.211837
 C         1.609940        -1.385720        -1.437862
 C         2.640658        -0.141841        -1.133035
 O         3.920894        -0.235216        -0.848981
 C         4.158231        -0.441597         0.505572
 C         4.354064        -1.744757         1.170925
 C         3.140083        -0.873824         1.506410
 O         1.980860        -1.315077         0.981811
 H         0.765824         1.200538         0.684390
 H        -0.088804         0.701681        -0.987931
 H        -0.460582        -0.190367         0.655272
 H         2.030688        -2.410583        -1.548910
 H         0.797622        -1.263331        -2.143411
 H         2.464723         0.496306        -1.964756
 H         4.968501         0.292990         0.892456
 H         4.152577        -2.558768         0.554478
 H         5.237773        -1.786278         1.746249
 H         3.095740        -0.378276         2.386063
