19
Iteration:  1876charge 0 multiplicity 1
 C         0.329324         0.316114         0.215918
 C         1.428491        -0.544261        -0.216798
 C         1.721837        -1.331224        -1.537086
 C         2.542970        -0.187405        -1.209233
 O         3.943099        -0.367504        -0.898631
 C         4.289843        -0.369873         0.528554
 C         4.341335        -1.700387         1.240242
 C         3.130773        -0.887329         1.428921
 O         1.905006        -1.341611         0.934776
 H         0.483718         1.174436         1.011508
 H        -0.162325         0.740926        -0.762217
 H        -0.341988        -0.343827         0.695599
 H         2.278895        -2.248820        -1.271055
 H         1.043562        -1.512050        -2.362214
 H         2.170959         0.725716        -1.653040
 H         4.848012         0.589337         0.936819
 H         4.145708        -2.615524         0.764386
 H         4.951903        -1.771988         2.096450
 H         3.037251        -0.359269         2.275456
