19
Iteration:  3244
 C         0.395399         0.363915         0.239366
 C         1.456781        -0.595660        -0.236162
 C         1.518503        -1.207363        -1.610046
 C         2.588269        -0.224702        -1.128740
 O         3.903678        -0.587775        -0.828052
 C         4.176092        -0.273632         0.490802
 C         4.472579        -1.542820         1.309629
 C         3.110838        -0.877273         1.392798
 O         2.006839        -1.476701         0.862653
 H         0.699008         1.399334         0.292269
 H        -0.460003         0.154724        -0.252691
 H         0.067074         0.262119         1.281827
 H         1.670250        -2.304726        -1.767922
 H         0.919048        -0.896093        -2.386945
 H         2.502618         0.768532        -1.483382
 H         4.457250         0.791135         0.638089
 H         4.450055        -2.581742         0.830344
 H         5.089971        -1.405248         2.183657
 H         2.857532        -0.301179         2.336000
