19
Iteration:  3560
 C         0.479916         0.372160         0.351778
 C         1.471728        -0.567897        -0.282650
 C         1.505285        -1.224882        -1.649735
 C         2.559876        -0.235038        -1.343846
 O         3.862285        -0.563205        -0.783591
 C         4.178299        -0.318116         0.591061
 C         4.375466        -1.558659         1.426981
 C         3.137707        -0.880955         1.499678
 O         2.025059        -1.428362         0.707020
 H        -0.311000         0.636805        -0.310694
 H        -0.193156        -0.298768         1.009787
 H         1.017881         1.170832         0.889151
 H         1.816156        -2.291094        -1.703626
 H         0.915355        -0.847647        -2.471009
 H         2.495708         0.802919        -1.724958
 H         4.622321         0.639914         0.607000
 H         4.398010        -2.519936         0.796862
 H         5.084245        -1.626499         2.280351
 H         2.896485        -0.271456         2.447021
