19
Iteration:  3348charge 0 multiplicity 1
 C         0.325317         0.310535         0.116228
 C         1.476177        -0.505969        -0.213337
 C         1.537613        -1.163608        -1.586155
 C         2.598122        -0.061353        -1.181101
 O         3.833711        -0.616433        -0.779605
 C         4.146264        -0.395304         0.559898
 C         4.540958        -1.602230         1.255988
 C         3.196975        -0.925551         1.513252
 O         1.992985        -1.414031         0.852124
 H        -0.324234         0.483416        -0.732474
 H        -0.472270        -0.228044         0.712320
 H         0.398503         1.288682         0.562372
 H         1.947227        -2.271671        -1.404067
 H         0.836484        -0.961540        -2.426888
 H         2.474438         0.855713        -1.838135
 H         4.708520         0.649457         0.682840
 H         4.567360        -2.610604         0.879829
 H         5.217191        -1.432794         2.025848
 H         3.003166        -0.593136         2.522814
