19
Iteration:  4824
 C         0.512897         0.506397         0.358175
 C         1.440206        -0.643356        -0.253566
 C         1.555737        -1.299531        -1.622158
 C         2.583752        -0.236274        -1.179910
 O         3.928547        -0.547483        -0.865955
 C         4.163958        -0.274130         0.553118
 C         4.298291        -1.560958         1.339537
 C         3.038931        -0.851359         1.456967
 O         2.033773        -1.496710         0.743425
 H         0.308298         1.029812        -0.514164
 H        -0.345304         0.011888         0.809137
 H         1.319994         0.856350         1.062806
 H         1.857079        -2.355596        -1.438728
 H         0.830434        -1.221924        -2.389105
 H         2.414226         0.677651        -1.718373
 H         4.771054         0.754727         0.848908
 H         4.223765        -2.465002         0.771380
 H         4.996792        -1.444708         2.150120
 H         2.539981        -0.258345         2.265610
