19
Iteration:   256charge 0 multiplicity 1
 C         0.279161         0.335423         0.222143
 C         1.480810        -0.636374        -0.229527
 C         1.590597        -1.323714        -1.520503
 C         2.583531        -0.183943        -1.262065
 O         3.878375        -0.526900        -0.938245
 C         4.230245        -0.397962         0.488754
 C         4.488395        -1.605316         1.404725
 C         3.143374        -0.799591         1.427578
 O         1.972728        -1.333397         0.923688
 H         0.473285         0.604350         1.372250
 H         0.218920         1.238566        -0.320936
 H        -0.778227        -0.109025         0.057160
 H         2.037605        -2.274074        -1.777122
 H         0.810037        -1.003398        -2.227424
 H         2.229369         0.784378        -1.645802
 H         4.675423         0.649023         0.646198
 H         4.564071        -2.535244         0.800820
 H         5.067709        -1.477164         2.358997
 H         2.972399        -0.205572         2.312080
