19
Iteration:  1935charge 0 multiplicity 1
 C         0.316292         0.298662         0.174491
 C         1.448440        -0.649017        -0.207710
 C         1.524666        -1.044480        -1.577842
 C         2.571848        -0.119849        -1.192696
 O         3.871085        -0.761628        -0.899154
 C         4.219384        -0.303269         0.488238
 C         4.482545        -1.472570         1.516703
 C         3.134948        -0.844997         1.421814
 O         2.041185        -1.525114         0.801634
 H         0.722834         0.843299         1.131955
 H         0.109436         1.011578        -0.666145
 H        -0.673187        -0.334323         0.230525
 H         1.690747        -2.029811        -2.041890
 H         0.674944        -0.575647        -2.081092
 H         2.535752         1.020949        -1.329745
 H         4.682212         0.704691         0.607914
 H         4.708775        -2.514044         1.121825
 H         5.083400        -1.148052         2.438988
 H         2.932427        -0.209228         2.385781
