19
Iteration:  4969
 C         0.264001         0.271631         0.108832
 C         1.503912        -0.467337        -0.182770
 C         1.625176        -1.228055        -1.470814
 C         2.583171        -0.098765        -1.171825
 O         3.845952        -0.552454        -0.855906
 C         4.240219        -0.422877         0.485230
 C         4.312993        -1.768764         1.315004
 C         3.203980        -0.770170         1.438994
 O         2.054131        -1.342549         0.888635
 H         0.046447         0.993003        -0.708219
 H        -0.616536        -0.329831         0.180617
 H         0.533868         0.799022         1.005186
 H         2.044634        -2.223674        -1.487838
 H         0.853619        -1.165992        -2.321531
 H         2.508424         0.815953        -1.744719
 H         4.900802         0.471740         0.729072
 H         3.997184        -2.599833         0.677640
 H         4.938541        -1.864276         2.229677
 H         3.032811        -0.188361         2.366503
