19
Iteration:   739charge 0 multiplicity 1
 C         0.293510         0.277441         0.075106
 C         1.485803        -0.613218        -0.131123
 C         1.680936        -1.295285        -1.510551
 C         2.523317        -0.107271        -1.088571
 O         3.894775        -0.413312        -0.958324
 C         4.192778        -0.319230         0.485463
 C         4.366298        -1.756415         1.273005
 C         3.175790        -0.853240         1.513288
 O         1.961021        -1.352266         0.949889
 H         0.613508         1.290217         0.415047
 H        -0.386010         0.218906        -0.890786
 H        -0.286264        -0.175126         0.824633
 H         2.228582        -2.210302        -1.536166
 H         1.101852        -1.133175        -2.403515
 H         2.451937         0.821288        -1.607803
 H         5.083089         0.492809         0.630235
 H         4.287605        -2.409702         0.443635
 H         5.049343        -1.725020         2.067273
 H         2.978131        -0.337357         2.517530
