19
Iteration:  1425charge 0 multiplicity 1
 C         0.338037         0.289880         0.308007
 C         1.469328        -0.651244        -0.234570
 C         1.555009        -1.122866        -1.706933
 C         2.574422        -0.155950        -1.150121
 O         3.878440        -0.655485        -0.918519
 C         4.241333        -0.343709         0.473594
 C         4.455700        -1.490479         1.466063
 C         3.122870        -0.815709         1.404607
 O         1.975255        -1.487723         0.854411
 H         0.741581         1.025865         1.079954
 H         0.100903         0.887643        -0.459837
 H        -0.454162        -0.304027         0.870087
 H         2.074586        -2.062025        -1.823942
 H         0.871473        -0.686572        -2.409734
 H         2.526729         0.835503        -1.640749
 H         4.688391         0.609301         0.623101
 H         4.413364        -2.520970         1.186300
 H         5.006221        -1.168475         2.344537
 H         2.730009        -0.283485         2.241039
