19
Iteration:   897
 C         0.303320         0.242407         0.260108
 C         1.431752        -0.574529        -0.224877
 C         1.588401        -1.281609        -1.647744
 C         2.578640        -0.131663        -1.163124
 O         3.893184        -0.541920        -0.883508
 C         4.193566        -0.370988         0.517987
 C         4.438277        -1.578571         1.374014
 C         3.175311        -0.819944         1.518928
 O         2.023425        -1.347253         0.786128
 H         0.633180         0.942737         0.937537
 H        -0.114526         0.781600        -0.571169
 H        -0.553831        -0.276586         0.809553
 H         1.950027        -2.372446        -1.625700
 H         0.796106        -1.039972        -2.450027
 H         2.485597         0.813904        -1.812337
 H         4.734813         0.467385         0.646468
 H         4.377033        -2.669902         1.057434
 H         5.147338        -1.422315         2.287564
 H         2.809915        -0.245063         2.370083
