19
Iteration:   435charge 0 multiplicity 1
 C         0.188699         0.256733         0.003321
 C         1.501056        -0.613562        -0.092182
 C         1.705991        -1.323853        -1.402224
 C         2.559943        -0.160514        -1.124165
 O         3.897310        -0.425705        -0.904298
 C         4.247645        -0.344597         0.449916
 C         4.341356        -1.721255         1.185134
 C         3.257462        -0.750063         1.511550
 O         1.940460        -1.327616         0.963336
 H         0.347657         0.934656         0.821923
 H         0.119202         1.059641        -0.912374
 H        -0.695198        -0.331742         0.168810
 H         2.004750        -2.358111        -1.514531
 H         0.956444        -1.102178        -2.168359
 H         2.395318         0.783222        -1.652330
 H         4.893697         0.429990         0.583550
 H         4.202833        -2.591780         0.541903
 H         5.123600        -1.895072         1.930545
 H         3.061972        -0.411084         2.605964
