19
Iteration:  1291charge 0 multiplicity 1
 C         0.245707         0.329687         0.102122
 C         1.471454        -0.567911        -0.245058
 C         1.664671        -1.375355        -1.484354
 C         2.564231        -0.153314        -1.148764
 O         3.966815        -0.338975        -0.873092
 C         4.229535        -0.375965         0.523324
 C         4.388910        -1.693947         1.173403
 C         3.182223        -0.905943         1.478494
 O         1.919363        -1.332092         0.989484
 H         0.385862         1.163489         0.795872
 H        -0.364271         0.734370        -0.751232
 H        -0.547950        -0.362623         0.779738
 H         2.049274        -2.392738        -1.539514
 H         0.925328        -1.237367        -2.269836
 H         2.395961         0.660648        -1.903369
 H         4.755889         0.465356         0.821187
 H         4.472131        -2.563754         0.525081
 H         5.071917        -1.746611         2.026766
 H         3.158128        -0.488411         2.585121
