19
Iteration:  1404
 C         0.350029         0.196519         0.270223
 C         1.511990        -0.546278        -0.268039
 C         1.466297        -1.115471        -1.650605
 C         2.565384        -0.135681        -1.225772
 O         3.851871        -0.700443        -0.834775
 C         4.193328        -0.419879         0.497424
 C         4.445398        -1.494631         1.523989
 C         3.101985        -0.746965         1.475962
 O         2.086397        -1.427548         0.698112
 H         0.731956         0.653786         1.279894
 H        -0.036119         0.968653        -0.305392
 H        -0.262778        -0.573546         0.768848
 H         1.719351        -2.172675        -1.793698
 H         0.643635        -0.720167        -2.231406
 H         2.522002         0.906197        -1.560353
 H         4.839244         0.479916         0.635186
 H         4.605424        -2.472686         1.106337
 H         5.185279        -1.218930         2.292415
 H         2.865846        -0.089314         2.225431
