19
Iteration:  1405
 C         0.358391         0.194916         0.271402
 C         1.501003        -0.551973        -0.264999
 C         1.473381        -1.116481        -1.649789
 C         2.565558        -0.129602        -1.230504
 O         3.851730        -0.698628        -0.841046
 C         4.200861        -0.418159         0.492757
 C         4.446072        -1.489104         1.530508
 C         3.101896        -0.747472         1.486757
 O         2.072979        -1.430877         0.696236
 H         0.742332         0.655106         1.290431
 H        -0.087338         0.984458        -0.325834
 H        -0.255596        -0.538293         0.750089
 H         1.686103        -2.177999        -1.823811
 H         0.636532        -0.751776        -2.248060
 H         2.524506         0.898179        -1.521273
 H         4.895192         0.506607         0.622896
 H         4.638112        -2.475869         1.106770
 H         5.192978        -1.254450         2.316691
 H         2.904317        -0.114460         2.224376
