19
Iteration:  1545
 C         0.227293         0.211483         0.048199
 C         1.524908        -0.602642        -0.247826
 C         1.665352        -1.265856        -1.607909
 C         2.563404        -0.083362        -1.169754
 O         3.806940        -0.413263        -0.812295
 C         4.298093        -0.447614         0.529539
 C         4.348794        -1.762078         1.188077
 C         3.234871        -0.799327         1.518864
 O         1.957284        -1.257471         1.063652
 H         0.324584         1.002697         0.905091
 H        -0.028834         0.709285        -0.817451
 H        -0.630619        -0.481385         0.472021
 H         2.259928        -2.202399        -1.620630
 H         0.838301        -1.242696        -2.339269
 H         2.570393         0.932727        -1.617260
 H         5.131568         0.127452         0.659374
 H         4.072834        -2.688246         0.627126
 H         5.232170        -1.686021         1.815876
 H         3.085690        -0.165119         2.510569
