19
Iteration:  4324
 C         0.534962         0.400521         0.299652
 C         1.557170        -0.566518        -0.227414
 C         1.593364        -1.301595        -1.558752
 C         2.518483        -0.105697        -1.194825
 O         3.865503        -0.457727        -0.908955
 C         4.111801        -0.377618         0.452731
 C         4.333787        -1.576635         1.417566
 C         3.061138        -0.868052         1.469723
 O         1.992401        -1.540986         0.770667
 H         0.297083         1.121036        -0.454352
 H        -0.386691        -0.059395         0.761579
 H         0.953432         0.956147         1.054329
 H         2.117098        -2.222126        -1.638989
 H         0.892558        -1.290188        -2.414873
 H         2.336957         0.782212        -1.765281
 H         4.754563         0.471004         0.771051
 H         4.459621        -2.598313         1.012075
 H         5.055763        -1.407149         2.234454
 H         2.699977        -0.456746         2.460058
