19
Iteration:  3137charge 0 multiplicity 1
 C         0.259745         0.239262         0.209532
 C         1.506243        -0.588660        -0.255233
 C         1.661660        -1.267682        -1.543359
 C         2.502441        -0.089274        -1.208904
 O         3.867162        -0.544566        -0.914322
 C         4.228582        -0.464442         0.404563
 C         4.373589        -1.608525         1.306244
 C         3.171192        -0.790509         1.506858
 O         2.015344        -1.305128         0.955259
 H         0.350473         0.340143         1.324885
 H         0.300362         1.272575        -0.084441
 H        -0.622427        -0.343287        -0.131308
 H         2.348981        -2.076730        -1.579581
 H         0.817077        -1.189552        -2.089059
 H         2.589041         0.860035        -1.645832
 H         4.978624         0.391440         0.734947
 H         4.079080        -2.633070         0.939470
 H         5.006294        -1.473179         2.214522
 H         3.028776        -0.141118         2.339245
