19
Iteration:  4357charge 0 multiplicity 1
 C         0.289517         0.309302         0.244305
 C         1.494943        -0.553865        -0.199232
 C         1.464952        -1.170638        -1.653406
 C         2.592145        -0.185315        -1.123626
 O         3.930741        -0.661386        -0.863463
 C         4.234647        -0.304777         0.522922
 C         4.464761        -1.550266         1.361593
 C         3.172235        -0.834807         1.477814
 O         1.956551        -1.437715         0.799031
 H        -0.028711         1.051634        -0.466629
 H        -0.643947        -0.337761         0.396787
 H         0.591808         0.784621         1.069070
 H         1.778136        -2.162511        -1.755394
 H         0.953496        -0.540914        -2.416986
 H         2.692441         0.672595        -1.744161
 H         4.729502         0.662196         0.727939
 H         4.526750        -2.407087         0.652231
 H         5.176084        -1.702913         2.190809
 H         2.908592        -0.383784         2.531398
