19
Iteration:  3516
 C         0.344934         0.349675         0.248492
 C         1.482268        -0.588322        -0.128684
 C         1.610159        -1.137770        -1.683293
 C         2.540741        -0.121015        -1.083109
 O         3.869903        -0.654859        -0.943178
 C         4.236894        -0.357974         0.441432
 C         4.378985        -1.528219         1.465660
 C         3.123098        -0.809220         1.382298
 O         2.038895        -1.531061         0.836897
 H        -0.010199         0.964001        -0.512142
 H        -0.684551        -0.164424         0.424243
 H         0.552918         0.885994         1.200169
 H         2.189299        -2.071718        -1.803838
 H         0.877914        -0.759139        -2.280421
 H         2.471723         0.792336        -1.612872
 H         4.816210         0.497665         0.670453
 H         4.343164        -2.605175         1.026876
 H         5.001982        -1.611091         2.384142
 H         2.738087        -0.076343         2.204661
