19
Iteration:  2325
 C         0.246134         0.332229        -0.040183
 C         1.404433        -0.596037        -0.109628
 C         1.710983        -1.261636        -1.533629
 C         2.527241        -0.151914        -1.094453
 O         3.877807        -0.538093        -0.844017
 C         4.214070        -0.355178         0.471993
 C         4.477797        -1.661958         1.168468
 C         3.220299        -0.879546         1.503356
 O         1.904219        -1.312067         1.004360
 H         0.411616         0.762720         1.046544
 H         0.215899         1.155580        -0.768373
 H        -0.667777        -0.140109        -0.127713
 H         2.235221        -2.241368        -1.399525
 H         1.039615        -1.236647        -2.398595
 H         2.441397         0.887640        -1.413798
 H         4.625121         0.581347         0.708657
 H         4.603688        -2.469375         0.495849
 H         5.109127        -1.686651         2.050063
 H         3.295436        -0.548323         2.575185
