19
Iteration:  1972charge 0 multiplicity 1
 C         0.445741         0.302119         0.360748
 C         1.494497        -0.634066        -0.250126
 C         1.588667        -1.135754        -1.659934
 C         2.631586        -0.144280        -1.262280
 O         3.815102        -0.713775        -0.887475
 C         4.152377        -0.288608         0.494626
 C         4.410128        -1.449868         1.463976
 C         3.056971        -0.831402         1.449679
 O         2.038548        -1.488790         0.775360
 H         0.778317         0.573938         1.320184
 H         0.163826         1.221106        -0.127746
 H        -0.557115        -0.298557         0.529964
 H         1.986709        -2.161348        -1.741712
 H         0.746324        -0.901488        -2.360613
 H         2.673399         0.882438        -1.653407
 H         4.631286         0.643392         0.625906
 H         4.399427        -2.448744         1.053320
 H         4.979333        -1.217288         2.325265
 H         2.621054        -0.308031         2.372175
