19
Iteration:    11
 C         0.310376         0.327134         0.242660
 C         1.468163        -0.624386        -0.155200
 C         1.601986        -1.225410        -1.532261
 C         2.609538        -0.147914        -1.202734
 O         3.966327        -0.622875        -0.971018
 C         4.149973        -0.319891         0.469926
 C         4.366869        -1.551843         1.342392
 C         3.078936        -0.747734         1.502178
 O         2.040480        -1.460493         0.860370
 H         0.527910         0.892434         1.101423
 H         0.035176         1.082865        -0.641805
 H        -0.595661        -0.211733         0.456314
 H         1.851273        -2.270679        -1.395518
 H         0.796602        -1.076886        -2.231701
 H         2.403117         0.758893        -1.746153
 H         4.905283         0.408853         0.593224
 H         4.449278        -2.535679         0.859763
 H         5.187179        -1.206821         1.956461
 H         2.744492        -0.458725         2.530649
