19
Iteration:  4662charge 0 multiplicity 1
 C         0.457669         0.418507         0.155690
 C         1.561895        -0.532810        -0.212378
 C         1.572984        -1.390850        -1.511696
 C         2.490703        -0.268809        -1.237859
 O         3.880482        -0.434036        -0.787042
 C         4.126199        -0.245801         0.595785
 C         4.408708        -1.680722         1.140649
 C         3.127179        -0.932876         1.550357
 O         1.947240        -1.354482         0.848930
 H         0.024521         1.081696        -0.724064
 H        -0.510815        -0.132028         0.509076
 H         0.902124         1.243986         0.798578
 H         1.966991        -2.356979        -1.382220
 H         0.812636        -1.231796        -2.330850
 H         2.496403         0.673455        -1.740865
 H         4.883090         0.506207         0.788398
 H         4.497198        -2.562999         0.457072
 H         5.178296        -1.747704         1.920823
 H         2.996350        -0.680601         2.669285
