19
Iteration:  4676
 C         0.372109         0.488496         0.198228
 C         1.422379        -0.606126        -0.214626
 C         1.644028        -1.391897        -1.470112
 C         2.579595        -0.225219        -1.216647
 O         3.882529        -0.371585        -0.816052
 C         4.200513        -0.384178         0.569467
 C         4.380461        -1.680737         1.193461
 C         3.129111        -0.874194         1.440719
 O         1.992983        -1.381981         0.862269
 H         0.137776         0.959729        -0.836494
 H        -0.514769        -0.022003         0.723583
 H         0.807169         1.083153         0.985271
 H         1.969801        -2.445464        -1.305433
 H         0.984587        -1.234546        -2.393108
 H         2.405703         0.571055        -1.954113
 H         4.642717         0.481134         0.883162
 H         4.155152        -2.454981         0.521085
 H         5.101799        -1.843741         1.982380
 H         3.002488        -0.373382         2.370019
