19
Iteration:  2493charge 0 multiplicity 1
 C         0.484534         0.326777         0.328860
 C         1.567980        -0.559983        -0.228455
 C         1.524973        -1.244757        -1.558060
 C         2.579630        -0.219599        -1.233633
 O         3.855943        -0.648095        -0.918069
 C         4.146046        -0.325064         0.479326
 C         4.389053        -1.443066         1.437655
 C         3.006226        -0.830820         1.456674
 O         2.069823        -1.446620         0.733790
 H         0.404837         0.214516         1.444972
 H         0.276541         1.317926        -0.075260
 H        -0.534003        -0.073934        -0.032517
 H         1.839221        -2.299347        -1.442791
 H         0.814472        -0.977490        -2.322720
 H         2.592431         0.837522        -1.556351
 H         4.863816         0.574349         0.878709
 H         4.307788        -2.462281         0.990870
 H         5.078178        -1.304408         2.321742
 H         2.605994        -0.187158         2.261173
