19
Iteration:   788charge 0 multiplicity 1
 C         0.378737         0.309714         0.239580
 C         1.484394        -0.599523        -0.227077
 C         1.556164        -1.251324        -1.545384
 C         2.559144        -0.217012        -1.250291
 O         3.942330        -0.478399        -0.846929
 C         4.208075        -0.263462         0.515356
 C         4.406155        -1.563239         1.337366
 C         3.112113        -0.877264         1.460307
 O         2.015983        -1.456907         0.813062
 H         0.687297         0.991088         1.011958
 H         0.026319         0.897573        -0.538615
 H        -0.483509        -0.403912         0.545233
 H         1.620953        -2.328663        -1.227534
 H         0.798945        -1.109670        -2.388400
 H         2.441302         0.833369        -1.658930
 H         4.512825         0.652501         0.756850
 H         4.151953        -2.439061         0.684926
 H         5.025765        -1.570178         2.303483
 H         2.875258        -0.440437         2.408650
