19
Iteration:  2731charge 0 multiplicity 1
 C         0.376027         0.350945         0.213906
 C         1.388630        -0.669850        -0.239603
 C         1.455094        -1.282063        -1.647294
 C         2.537477        -0.213161        -1.171975
 O         3.906090        -0.660107        -0.904557
 C         4.196408        -0.292192         0.505565
 C         4.532118        -1.505492         1.438094
 C         3.180264        -0.750634         1.485087
 O         2.027151        -1.430125         0.869887
 H        -0.664684        -0.088104         0.264434
 H         0.754730         0.881271         1.065749
 H         0.191633         1.237363        -0.437519
 H         1.809576        -2.258538        -1.836271
 H         0.616086        -0.948176        -2.290337
 H         2.475327         0.802178        -1.552136
 H         4.637965         0.659507         0.541221
 H         4.476885        -2.483430         1.013169
 H         5.285749        -1.274165         2.128701
 H         2.933740        -0.173676         2.370786
