19
Iteration:  1518
 C         0.243943         0.248538         0.117922
 C         1.533852        -0.591879        -0.161953
 C         1.702781        -1.336171        -1.454285
 C         2.621511        -0.139621        -1.167822
 O         3.918789        -0.368639        -0.959685
 C         4.183744        -0.333379         0.550371
 C         4.303083        -1.793835         1.238909
 C         3.173441        -0.881341         1.407875
 O         1.947401        -1.281987         0.967377
 H         0.474595         0.938466         0.880090
 H         0.060460         0.992522        -0.780146
 H        -0.599056        -0.310935         0.449594
 H         2.249934        -2.269134        -1.249479
 H         0.857445        -1.163639        -2.114132
 H         2.476129         0.862233        -1.589386
 H         4.812259         0.641775         0.758668
 H         4.034189        -2.482469         0.454957
 H         5.058569        -1.826293         2.029024
 H         3.008836        -0.462491         2.384916
