19
Iteration:   124
 C         0.285355         0.331219         0.153198
 C         1.427683        -0.618390        -0.230666
 C         1.571044        -1.249196        -1.642229
 C         2.550041        -0.224835        -1.241808
 O         3.844847        -0.503112        -0.864919
 C         4.116369        -0.394805         0.523896
 C         4.517921        -1.616513         1.372446
 C         3.213400        -0.772079         1.469819
 O         2.040836        -1.381901         0.953358
 H         0.699163         1.162316         0.891347
 H        -0.122659         0.785469        -0.644225
 H        -0.504623        -0.237684         0.785181
 H         1.935235        -2.308970        -1.563386
 H         0.949579        -1.007283        -2.507512
 H         2.426208         0.794978        -1.675935
 H         4.871769         0.458625         0.759865
 H         4.454362        -2.623124         0.863350
 H         5.254195        -1.559991         2.171292
 H         3.120462        -0.197093         2.368122
