19
Iteration:   149charge 0 multiplicity 1
 C         0.304349         0.252217         0.142766
 C         1.557243        -0.583719        -0.204978
 C         1.608002        -1.363362        -1.464353
 C         2.564036        -0.082636        -1.141825
 O         3.901720        -0.502547        -0.944564
 C         4.253942        -0.341898         0.514973
 C         4.269141        -1.646353         1.289554
 C         3.143971        -0.735308         1.487506
 O         2.000999        -1.361199         0.873179
 H         0.517446         1.228823         0.562113
 H        -0.476004         0.392612        -0.592298
 H        -0.067458        -0.314433         0.983667
 H         2.230933        -2.226840        -1.470741
 H         0.712847        -1.277976        -2.112093
 H         2.376746         0.877618        -1.705150
 H         5.111648         0.330843         0.576038
 H         4.239564        -2.412503         0.464744
 H         5.010967        -1.930051         2.112086
 H         2.931714        -0.257272         2.557236
