19
Iteration:  1436
 C         0.378001         0.317192         0.237467
 C         1.480135        -0.617299        -0.154703
 C         1.623499        -1.145382        -1.657360
 C         2.559954        -0.167316        -1.112082
 O         3.911791        -0.621082        -0.860839
 C         4.099843        -0.394352         0.443313
 C         4.430401        -1.500948         1.369936
 C         3.067939        -0.798163         1.383755
 O         2.019315        -1.501767         0.869153
 H         0.862758         1.000552         0.996204
 H        -0.093266         0.836119        -0.479345
 H        -0.516388        -0.194030         0.714002
 H         1.922414        -2.160166        -1.871116
 H         0.908817        -0.884771        -2.414841
 H         2.538379         0.899751        -1.415555
 H         4.502369         0.543019         0.705865
 H         4.598080        -2.481042         0.962224
 H         5.172423        -1.301099         2.132889
 H         2.968058        -0.055809         2.130462
