19
Iteration:  4710
 C         0.342036         0.278438         0.199671
 C         1.536375        -0.612165        -0.193653
 C         1.618652        -1.234951        -1.519140
 C         2.556943        -0.123472        -1.220954
 O         3.912818        -0.393591        -0.925556
 C         4.245694        -0.529923         0.441326
 C         4.307293        -1.682683         1.340104
 C         3.120194        -0.812255         1.460212
 O         1.960004        -1.324820         0.949054
 H        -0.024640         0.827812        -0.759958
 H        -0.482868        -0.445855         0.409884
 H         0.568393         1.094468         0.919357
 H         2.052683        -2.335004        -1.535342
 H         0.894264        -1.035268        -2.270807
 H         2.507400         0.857636        -1.760791
 H         4.911971         0.314804         0.725535
 H         4.205159        -2.711566         1.029510
 H         5.021783        -1.632288         2.152277
 H         3.093009        -0.257572         2.342987
