19
Iteration:   551charge 0 multiplicity 1
 C         0.442122         0.303320         0.295572
 C         1.449102        -0.658357        -0.264497
 C         1.542779        -1.192623        -1.634764
 C         2.518644        -0.147492        -1.209939
 O         3.861177        -0.592681        -0.847606
 C         4.167458        -0.407769         0.475890
 C         4.488400        -1.451763         1.482050
 C         3.082771        -0.820009         1.514220
 O         2.044968        -1.493765         0.710632
 H         0.985199         1.187091         0.781327
 H        -0.180188         0.756365        -0.364082
 H        -0.218956        -0.100572         1.067455
 H         1.769850        -2.209644        -1.934205
 H         0.727440        -0.849043        -2.275112
 H         2.602391         0.767010        -1.769672
 H         4.603794         0.616345         0.865196
 H         4.393347        -2.479801         1.128224
 H         5.096282        -1.250464         2.349186
 H         2.866979         0.002763         2.152654
