19
Iteration:  2622
 C         0.282238         0.237081         0.147197
 C         1.539983        -0.522364        -0.201838
 C         1.652179        -1.325107        -1.443689
 C         2.543280        -0.112407        -1.219587
 O         3.867812        -0.502977        -0.905330
 C         4.168243        -0.440721         0.372385
 C         4.355145        -1.634357         1.308353
 C         3.175198        -0.758277         1.502673
 O         2.024794        -1.300501         0.944900
 H        -0.528852        -0.580820         0.342697
 H         0.473231         0.721742         1.113653
 H        -0.017149         0.784731        -0.796341
 H         2.143042        -2.281255        -1.332505
 H         0.913826        -1.308008        -2.304061
 H         2.427184         0.910012        -1.677604
 H         4.996616         0.283636         0.654271
 H         3.952504        -2.596491         0.943270
 H         5.116149        -1.669868         2.129145
 H         3.086717        -0.152997         2.426359
