19
Iteration:  3969
 C         0.368725         0.419116         0.218992
 C         1.477974        -0.581245        -0.261354
 C         1.596966        -1.348642        -1.551880
 C         2.583377        -0.183314        -1.107760
 O         3.906318        -0.452182        -0.848874
 C         4.201225        -0.357802         0.571271
 C         4.478350        -1.619887         1.236407
 C         3.124461        -0.945024         1.403901
 O         1.867328        -1.357046         0.860492
 H         0.095965         0.927801        -0.760462
 H        -0.309456        -0.271735         0.612152
 H         0.745259         1.063618         1.045460
 H         1.858842        -2.373723        -1.380011
 H         0.826777        -0.992859        -2.284557
 H         2.478458         0.590422        -1.810780
 H         4.648361         0.566201         0.773545
 H         4.601079        -2.662700         0.704900
 H         5.158690        -1.536797         2.139012
 H         2.979464        -0.385592         2.378000
