19
Iteration:  3389charge 0 multiplicity 1
 C         0.353911         0.265608         0.172902
 C         1.468862        -0.561529        -0.218287
 C         1.616317        -1.262650        -1.529742
 C         2.561801        -0.194821        -1.128253
 O         3.965521        -0.382783        -0.834771
 C         4.199687        -0.328405         0.484415
 C         4.368499        -1.728426         1.205650
 C         3.120472        -0.827847         1.434867
 O         1.915246        -1.386575         0.917007
 H        -0.366309         0.521999        -0.678169
 H        -0.070034        -0.165933         0.988107
 H         0.818050         1.258722         0.303588
 H         1.955383        -2.334529        -1.325270
 H         0.972583        -1.140063        -2.401993
 H         2.537104         0.821758        -1.626218
 H         5.040011         0.378237         0.947025
 H         4.223321        -2.677429         0.658219
 H         5.004951        -1.752814         2.103296
 H         2.954490        -0.364728         2.376670
