19
Iteration:  2200
 C         0.441734         0.418072         0.201267
 C         1.480762        -0.592829        -0.192863
 C         1.493078        -1.181910        -1.598229
 C         2.588291        -0.240942        -1.145752
 O         3.881512        -0.632221        -0.750088
 C         4.156704        -0.271678         0.560159
 C         4.474906        -1.441645         1.373714
 C         3.094577        -0.941437         1.440959
 O         2.002061        -1.540037         0.661568
 H         0.871223         1.272507         0.709392
 H        -0.037484         0.795767        -0.699012
 H        -0.363501         0.008438         0.950970
 H         1.825161        -2.220300        -1.804481
 H         0.791675        -0.825604        -2.354613
 H         2.397811         0.768445        -1.578105
 H         4.455919         0.794642         0.652376
 H         4.841393        -2.212542         0.730592
 H         4.949287        -1.514201         2.356744
 H         2.810886        -0.522609         2.497673
