19
Iteration:  3267charge 0 multiplicity 1
 C         0.325042         0.282744         0.312429
 C         1.527078        -0.557156        -0.240478
 C         1.451030        -1.180117        -1.550084
 C         2.553919        -0.202791        -1.318056
 O         3.913686        -0.589633        -0.864862
 C         4.239849        -0.364041         0.537996
 C         4.394993        -1.535320         1.432802
 C         3.089983        -0.818151         1.524791
 O         2.106973        -1.451419         0.690367
 H         0.702271         1.300640         0.245890
 H        -0.553074         0.095862        -0.065164
 H         0.184289         0.328529         1.395984
 H         1.687779        -2.221209        -1.535250
 H         0.713880        -0.974012        -2.238258
 H         2.478474         0.742342        -1.804485
 H         4.787280         0.628555         0.752726
 H         4.348138        -2.500615         0.809186
 H         5.129855        -1.503223         2.256215
 H         2.652922        -0.175732         2.292725
