19
Iteration:  4751charge 0 multiplicity 1
 C         0.135535         0.204825         0.127253
 C         1.464067        -0.517572        -0.170846
 C         1.646671        -1.088729        -1.624428
 C         2.597971        -0.066712        -1.080401
 O         3.830471        -0.760564        -0.767207
 C         4.335577        -0.393471         0.428579
 C         4.417874        -1.626862         1.307115
 C         3.208712        -0.794673         1.432492
 O         1.989985        -1.301973         0.897991
 H         0.033726         0.668559        -0.864878
 H        -0.705626        -0.513635         0.356640
 H         0.461266         0.758937         0.959573
 H         1.839737        -2.186156        -1.748826
 H         0.870823        -0.718136        -2.261649
 H         2.736869         0.875104        -1.550709
 H         4.905475         0.415877         0.422243
 H         4.383140        -2.523258         0.749218
 H         5.025328        -1.550277         2.184643
 H         3.083671        -0.256788         2.349692
