19
Iteration:  1230
 C         0.175448         0.185892         0.018973
 C         1.421294        -0.613490        -0.095113
 C         1.643543        -1.181776        -1.480967
 C         2.550511        -0.069508        -1.072431
 O         3.935082        -0.491152        -0.923671
 C         4.277127        -0.485623         0.491403
 C         4.422570        -1.692544         1.239345
 C         3.187063        -0.706130         1.487321
 O         1.992940        -1.341741         0.954179
 H         0.252860         0.939014         0.875774
 H        -0.057411         0.492812        -0.998077
 H        -0.518959        -0.512080         0.045434
 H         2.043854        -2.203923        -1.350159
 H         0.858190        -0.959755        -2.251467
 H         2.498664         0.900099        -1.683930
 H         4.871766         0.511242         0.826458
 H         4.160554        -2.495391         0.527560
 H         5.302470        -1.954975         1.831460
 H         3.050365        -0.055727         2.353540
