19
Iteration:  2640
 C         0.280729         0.224618         0.173746
 C         1.525122        -0.612460        -0.169999
 C         1.634597        -1.308023        -1.450732
 C         2.501557        -0.185234        -1.216777
 O         3.940149        -0.440837        -1.008897
 C         4.304684        -0.411281         0.507743
 C         4.306149        -1.718509         1.332645
 C         3.147345        -0.673002         1.460644
 O         1.993596        -1.299439         0.941458
 H        -0.679066        -0.250704        -0.022192
 H         0.266920         0.585589         1.229888
 H         0.108825         1.079617        -0.457781
 H         2.159441        -2.354850        -1.368216
 H         0.686758        -1.260373        -2.091296
 H         2.442986         0.683471        -1.920602
 H         4.881820         0.403460         0.773636
 H         4.044735        -2.664980         0.794551
 H         5.272739        -1.657486         1.941900
 H         2.916745         0.065856         2.270689
