19
Iteration:  3780charge 0 multiplicity 1
 C         0.456855         0.410234         0.301769
 C         1.506131        -0.597360        -0.246035
 C         1.528675        -1.227971        -1.661927
 C         2.594402        -0.232304        -1.214412
 O         3.874082        -0.554997        -0.790048
 C         4.101307        -0.306201         0.543014
 C         4.437839        -1.580535         1.336246
 C         3.084283        -0.842903         1.519468
 O         2.028562        -1.478891         0.734624
 H        -0.066418         0.941802        -0.549849
 H        -0.164925        -0.244482         0.824493
 H         0.812463         1.134998         1.063360
 H         1.754293        -2.416869        -1.564555
 H         0.841923        -0.693093        -2.347201
 H         2.396661         0.744836        -1.768597
 H         4.566429         0.638006         0.824152
 H         4.419670        -2.498172         0.774885
 H         5.143123        -1.722397         2.068053
 H         2.781429        -0.250905         2.339909
