19
Iteration:  3433
 C         0.310116         0.348866         0.126781
 C         1.474462        -0.631885        -0.222889
 C         1.662316        -1.294473        -1.518332
 C         2.533868        -0.131368        -1.145620
 O         3.846517        -0.370260        -0.843928
 C         4.276645        -0.445470         0.495046
 C         4.367456        -1.721576         1.286058
 C         3.149329        -0.850489         1.472430
 O         1.967901        -1.345776         0.888900
 H         0.063778         1.031913        -0.759064
 H        -0.400788        -0.327398         0.438562
 H         0.607887         0.954766         1.023518
 H         2.104107        -2.357915        -1.372958
 H         0.987310        -1.308313        -2.370531
 H         2.298529         0.895218        -1.580167
 H         5.013923         0.476517         0.614180
 H         4.179395        -2.660437         0.738458
 H         5.148500        -1.667420         1.993530
 H         3.111484        -0.285626         2.354175
