19
Iteration:  3254charge 0 multiplicity 1
 C         0.371655         0.372738         0.286044
 C         1.469800        -0.572385        -0.189186
 C         1.481042        -1.239746        -1.608250
 C         2.614892        -0.241018        -1.165810
 O         3.908979        -0.572060        -0.830067
 C         4.135664        -0.303868         0.527434
 C         4.436663        -1.540657         1.352086
 C         3.118732        -0.800192         1.433284
 O         2.064835        -1.486807         0.742590
 H         0.420571         1.440102         0.127624
 H        -0.517142         0.116365        -0.294721
 H         0.223420         0.013727         1.329924
 H         1.527408        -2.354268        -1.779032
 H         0.841447        -0.664490        -2.227586
 H         2.603870         0.639876        -1.766941
 H         4.766442         0.518131         0.661941
 H         4.391378        -2.556636         0.888339
 H         5.176025        -1.429116         2.115750
 H         2.887241        -0.312025         2.433236
