19
Iteration:  1138charge 0 multiplicity 1
 C         0.551024         0.395788         0.282738
 C         1.502407        -0.688464        -0.223240
 C         1.473459        -1.245538        -1.649979
 C         2.531725        -0.174310        -1.240199
 O         3.861424        -0.512319        -0.849295
 C         4.120182        -0.336172         0.500084
 C         4.492275        -1.495812         1.538523
 C         3.051704        -0.838700         1.417651
 O         2.042287        -1.558187         0.700572
 H         1.053573         1.035065         0.957557
 H        -0.011967         1.011208        -0.369689
 H        -0.287432        -0.188064         0.789622
 H         1.779581        -2.261790        -1.611057
 H         0.674734        -0.868984        -2.249018
 H         2.376750         0.849620        -1.651263
 H         4.426955         0.581272         0.765030
 H         4.568130        -2.559145         1.319697
 H         5.073229        -1.141676         2.375368
 H         2.655856        -0.169024         2.253910
