19
Iteration:  4576charge 0 multiplicity 1
 C         0.345559         0.136591         0.306698
 C         1.502436        -0.476664        -0.196391
 C         1.497594        -1.085422        -1.674370
 C         2.678545        -0.152172        -1.225117
 O         3.891981        -0.714178        -0.939816
 C         4.276377        -0.432879         0.416128
 C         4.311975        -1.572623         1.446715
 C         3.094655        -0.703113         1.535291
 O         2.054471        -1.366955         0.840351
 H        -0.094607         0.990020        -0.362418
 H        -0.359876        -0.738270         0.620829
 H         0.621551         0.584502         1.267780
 H         1.668339        -2.210443        -1.770311
 H         0.767813        -0.561451        -2.375730
 H         2.527039         0.859437        -1.628421
 H         4.816689         0.442988         0.471499
 H         4.085441        -2.623991         1.121234
 H         5.037313        -1.457840         2.277502
 H         2.747579         0.017252         2.374385
