19
Iteration:  1222
 C         0.188173         0.185358        -0.003858
 C         1.475349        -0.536919        -0.133991
 C         1.600087        -1.218009        -1.483936
 C         2.542880        -0.041246        -1.071040
 O         3.899017        -0.487553        -0.887136
 C         4.245322        -0.479871         0.457185
 C         4.481857        -1.674173         1.285901
 C         3.213141        -0.793559         1.471364
 O         1.987427        -1.354569         0.979642
 H         0.173615         0.836862         0.887128
 H        -0.068674         0.772654        -1.018258
 H        -0.698309        -0.571080         0.166629
 H         1.865322        -2.252629        -1.591823
 H         0.976537        -0.889702        -2.322718
 H         2.566423         0.793560        -1.658884
 H         4.860421         0.462642         0.657965
 H         4.318907        -2.567125         0.668977
 H         5.313529        -1.710122         1.990633
 H         2.989322        -0.123973         2.210094
