19
Iteration:  3228charge 0 multiplicity 1
 C         0.429808         0.353588         0.203102
 C         1.431930        -0.667934        -0.131166
 C         1.615683        -1.223470        -1.618879
 C         2.552290        -0.107495        -1.159009
 O         3.863564        -0.606788        -0.911190
 C         4.133569        -0.328314         0.526350
 C         4.515017        -1.492087         1.322321
 C         3.140142        -0.913714         1.463118
 O         1.881836        -1.463757         0.877578
 H         0.834996         1.428415         0.159244
 H        -0.556609         0.506201        -0.587973
 H         0.201302         0.133104         1.267666
 H         2.209472        -2.139794        -1.686299
 H         0.660350        -1.056199        -2.305363
 H         2.518568         0.951517        -1.598455
 H         4.770768         0.590963         0.565101
 H         4.741729        -2.267480         0.638329
 H         5.265317        -1.518008         2.130391
 H         3.036535        -0.384694         2.405518
