19
Iteration:  2894
 C         0.279547         0.293141         0.171585
 C         1.529096        -0.570251        -0.168661
 C         1.569603        -1.363543        -1.462616
 C         2.575964        -0.160700        -1.212415
 O         3.990680        -0.425588        -0.881918
 C         4.152172        -0.406149         0.458200
 C         4.374425        -1.691592         1.246579
 C         3.142943        -0.745396         1.472395
 O         1.974302        -1.291019         0.907707
 H         0.240997         0.245975         1.305519
 H         0.316207         1.154061        -0.427391
 H        -0.577511        -0.369421        -0.059196
 H         1.992110        -2.443877        -1.354821
 H         0.894986        -1.147629        -2.316297
 H         2.470672         0.681793        -1.877591
 H         4.869727         0.325654         0.848053
 H         3.967497        -2.583080         0.891725
 H         5.294728        -1.797797         1.759398
 H         3.047407        -0.281312         2.476690
