19
Iteration:  2940charge 0 multiplicity 1
 C         0.250897         0.304414         0.090670
 C         1.509925        -0.587744        -0.203413
 C         1.596095        -1.216044        -1.656275
 C         2.554247        -0.154290        -1.155746
 O         3.839741        -0.536068        -0.879331
 C         4.226014        -0.441041         0.545514
 C         4.493337        -1.647975         1.290154
 C         3.175893        -0.826472         1.540599
 O         1.961796        -1.323152         0.941787
 H         0.623964         1.122760         0.793197
 H        -0.274887         0.501460        -0.854691
 H        -0.401342        -0.381627         0.781711
 H         2.138111        -2.096352        -1.640123
 H         0.694737        -1.093487        -2.200324
 H         2.443743         0.886394        -1.383299
 H         4.964534         0.467356         0.545533
 H         4.337822        -2.724749         1.015647
 H         5.340025        -1.521441         1.967051
 H         3.067998        -0.009917         2.277615
