19
Iteration:  4404
 C         0.227120         0.255241         0.153956
 C         1.501299        -0.567199        -0.179744
 C         1.636452        -1.104027        -1.627038
 C         2.540951        -0.044047        -1.108952
 O         3.853037        -0.640780        -0.926201
 C         4.280256        -0.471188         0.381873
 C         4.425969        -1.606203         1.370753
 C         3.162949        -0.822740         1.453586
 O         1.993196        -1.377495         0.975069
 H        -0.230208         0.738165        -0.781066
 H        -0.522158        -0.555473         0.273312
 H         0.387485         0.964232         1.052824
 H         2.370446        -2.022484        -1.648307
 H         0.760747        -0.906677        -2.271366
 H         2.393659         1.075668        -1.217599
 H         4.977643         0.289928         0.616786
 H         4.332025        -2.655733         1.085956
 H         5.131969        -1.516240         2.232531
 H         2.997918        -0.226586         2.259175
