19
Iteration:   569charge 0 multiplicity 1
 C         0.477668         0.344718         0.352870
 C         1.524174        -0.636528        -0.237313
 C         1.500465        -1.176722        -1.686638
 C         2.610371        -0.211271        -1.212819
 O         3.868887        -0.681116        -0.860383
 C         4.112864        -0.203663         0.501416
 C         4.398701        -1.491278         1.449912
 C         3.045554        -0.816605         1.413017
 O         2.063552        -1.515860         0.776112
 H         0.874288         1.170926         0.988227
 H        -0.241437         0.655666        -0.447534
 H        -0.201852        -0.231185         1.121037
 H         1.801088        -2.206401        -1.720229
 H         0.846765        -0.844228        -2.479274
 H         2.502285         0.859617        -1.524490
 H         4.662259         0.667428         0.628024
 H         4.601930        -2.386679         0.893608
 H         5.001111        -1.158453         2.290002
 H         2.638278        -0.516906         2.345511
