19
Iteration:  4864charge 0 multiplicity 1
 C         0.539554         0.445579         0.169002
 C         1.427315        -0.626439        -0.264126
 C         1.484566        -1.235339        -1.583794
 C         2.599418        -0.220684        -1.211006
 O         3.920381        -0.561880        -0.827425
 C         4.135185        -0.311551         0.547977
 C         4.473018        -1.537038         1.336868
 C         3.057058        -0.946690         1.487835
 O         1.947174        -1.454036         0.817387
 H        -0.093829         0.998143        -0.539635
 H        -0.262450         0.033403         0.819484
 H         0.874680         1.168521         0.885651
 H         1.781433        -2.252222        -1.476459
 H         0.850214        -0.962557        -2.470617
 H         2.532703         0.878572        -1.497716
 H         4.552671         0.631359         0.736203
 H         4.648692        -2.512832         0.845320
 H         5.126209        -1.420988         2.264529
 H         2.952375        -0.556087         2.513875
