19
Iteration:  2465charge 0 multiplicity 1
 C         0.313243         0.361210         0.218950
 C         1.434186        -0.630814        -0.216976
 C         1.567263        -1.177518        -1.652611
 C         2.558836        -0.150430        -1.137243
 O         3.816486        -0.709325        -0.844485
 C         4.209039        -0.324575         0.514188
 C         4.557181        -1.472753         1.435772
 C         3.137910        -0.869558         1.398098
 O         2.002091        -1.455520         0.847409
 H         0.500873         0.938830         1.084959
 H         0.108550         1.095969        -0.609114
 H        -0.666926        -0.116536         0.232443
 H         1.925458        -2.157134        -1.730214
 H         0.941651        -0.700029        -2.423449
 H         2.717704         0.819177        -1.640175
 H         4.749043         0.508983         0.683750
 H         4.704070        -2.340522         0.848164
 H         5.226572        -1.399938         2.258848
 H         2.799783        -0.278114         2.247115
