19
Iteration:   761charge 0 multiplicity 1
 C         0.316063         0.354029         0.199103
 C         1.480849        -0.647659        -0.269988
 C         1.634486        -1.371582        -1.578929
 C         2.494701        -0.112918        -1.231194
 O         3.908393        -0.390802        -0.783138
 C         4.210768        -0.428458         0.493814
 C         4.483571        -1.661022         1.277388
 C         3.123764        -0.864313         1.473522
 O         1.963060        -1.345908         0.901974
 H         0.750276         1.250296         0.733128
 H        -0.388648         0.490014        -0.723148
 H        -0.296468        -0.184808         0.854710
 H         2.132861        -2.320703        -1.635554
 H         0.831360        -1.177035        -2.235781
 H         2.414339         0.845699        -1.697328
 H         4.755015         0.589612         0.913353
 H         4.210558        -2.563122         0.786229
 H         5.201955        -1.527475         2.023570
 H         2.954881        -0.257136         2.434274
