19
Iteration:  4429
 C         0.293707         0.239287         0.183448
 C         1.422258        -0.620603        -0.213942
 C         1.543843        -1.208766        -1.534229
 C         2.577769        -0.170105        -1.143467
 O         3.945737        -0.457256        -0.906153
 C         4.273735        -0.436107         0.478873
 C         4.371569        -1.716156         1.338095
 C         3.165339        -0.738737         1.470360
 O         2.014332        -1.332445         0.875739
 H        -0.189288         0.695725        -0.694407
 H        -0.487138        -0.452771         0.511980
 H         0.742422         1.013192         1.040966
 H         1.989671        -2.155090        -1.732138
 H         0.845515        -0.669715        -2.191044
 H         2.311422         0.713397        -1.798975
 H         4.949516         0.421845         0.885057
 H         4.047885        -2.641993         0.858885
 H         5.143643        -1.882967         2.062049
 H         2.949580        -0.017195         2.313194
