19
Iteration:  2227
 C         0.500861         0.309304         0.330730
 C         1.521099        -0.617092        -0.236497
 C         1.504551        -1.117893        -1.714402
 C         2.615566        -0.204035        -1.254230
 O         3.885227        -0.595794        -0.825377
 C         4.105629        -0.396992         0.496494
 C         4.383234        -1.428339         1.481084
 C         3.005854        -0.833923         1.487061
 O         2.063865        -1.537268         0.751603
 H         1.090022         1.185451         0.756255
 H        -0.206894         0.798442        -0.360330
 H        -0.016999        -0.231150         1.054548
 H         1.871040        -2.114015        -1.951374
 H         0.656095        -0.719769        -2.280354
 H         2.460197         0.747796        -1.764775
 H         4.508968         0.587393         0.667130
 H         4.448550        -2.480508         1.112251
 H         5.153984        -1.294403         2.245570
 H         2.648693        -0.320730         2.332629
