19
Iteration:  1645charge 0 multiplicity 1
 C         0.465143         0.351892         0.318595
 C         1.533911        -0.596274        -0.183255
 C         1.579251        -1.179758        -1.597205
 C         2.567659        -0.194915        -1.204256
 O         3.925151        -0.508282        -0.930204
 C         4.096774        -0.369168         0.499161
 C         4.367622        -1.461655         1.460653
 C         3.006073        -0.906530         1.423729
 O         2.024686        -1.604145         0.787578
 H         0.953604         0.997096         1.194956
 H         0.383637         1.078573        -0.497790
 H        -0.555924         0.106845         0.593581
 H         1.792479        -2.277347        -1.866699
 H         0.892950        -0.746120        -2.433288
 H         2.549853         0.778403        -1.692273
 H         4.458766         0.668591         0.580107
 H         4.633117        -2.426818         0.950539
 H         5.116520        -1.241215         2.301753
 H         2.619426        -0.303443         2.258052
