19
Iteration:  3737
 C         0.379580         0.427069         0.183439
 C         1.500620        -0.527467        -0.171131
 C         1.644751        -1.247013        -1.586399
 C         2.581508        -0.127726        -1.140463
 O         3.890394        -0.559563        -0.862748
 C         4.078280        -0.349695         0.528736
 C         4.514998        -1.585235         1.305278
 C         3.112754        -0.986408         1.408080
 O         1.912527        -1.487207         0.853373
 H        -0.196762         0.798445        -0.727345
 H        -0.251038         0.001638         0.924912
 H         0.646750         1.452860         0.559899
 H         2.148472        -2.285752        -1.410025
 H         0.843230        -0.989609        -2.282999
 H         2.597134         0.948877        -1.474382
 H         4.433244         0.604471         0.795061
 H         4.534598        -2.482924         0.718904
 H         5.153856        -1.483684         2.112615
 H         2.930754        -0.494516         2.319815
