19
Iteration:  3060
 C         0.377048         0.386281         0.296535
 C         1.503420        -0.597719        -0.265993
 C         1.560674        -1.328809        -1.625521
 C         2.539462        -0.155403        -1.134245
 O         3.874625        -0.634193        -0.836940
 C         4.127039        -0.279429         0.502740
 C         4.432933        -1.526517         1.347177
 C         3.140415        -0.858891         1.396638
 O         1.988751        -1.440305         0.825499
 H         0.896254         0.920518         1.152195
 H         0.127316         1.086065        -0.477382
 H        -0.495494        -0.105593         0.803382
 H         2.048673        -2.216301        -1.596840
 H         0.938634        -0.982894        -2.391157
 H         2.684312         0.637108        -1.806567
 H         4.552658         0.776919         0.787683
 H         4.700154        -2.411534         0.788229
 H         5.171227        -1.345340         2.172436
 H         2.823845        -0.277852         2.258914
