19
Iteration:   288
 C         0.323115         0.327231         0.313652
 C         1.530089        -0.606612        -0.241215
 C         1.500182        -1.213402        -1.538703
 C         2.592919        -0.186937        -1.227925
 O         3.864634        -0.684152        -0.943014
 C         4.219444        -0.364000         0.508206
 C         4.422212        -1.432855         1.438454
 C         3.041489        -0.703383         1.521724
 O         2.121374        -1.513130         0.765912
 H         0.446638         0.617298         1.458228
 H         0.336949         1.182790        -0.258862
 H        -0.717245        -0.193201         0.200815
 H         1.782504        -2.258601        -1.647965
 H         0.968494        -0.915294        -2.441395
 H         2.415833         0.764130        -1.791718
 H         4.667253         0.707684         0.571514
 H         4.241796        -2.308178         0.771928
 H         5.247636        -1.647569         2.162418
 H         2.725314        -0.070136         2.234729
