19
Iteration:  1682
 C         0.479999         0.347516         0.339587
 C         1.499667        -0.633789        -0.253068
 C         1.539640        -1.206554        -1.706460
 C         2.551573        -0.181610        -1.226232
 O         3.822820        -0.671865        -0.748325
 C         4.117731        -0.264673         0.546619
 C         4.442429        -1.473060         1.439365
 C         3.051972        -0.868872         1.437560
 O         2.039234        -1.509988         0.675532
 H         1.069720         0.885803         1.149789
 H         0.355915         1.204940        -0.471445
 H        -0.407980        -0.077001         0.858537
 H         1.702737        -2.229118        -1.807120
 H         0.954277        -0.655618        -2.365290
 H         2.480771         0.769244        -1.771034
 H         4.587051         0.762689         0.935564
 H         4.905013        -2.098050         0.713765
 H         4.976535        -1.223030         2.299157
 H         2.820446        -0.501326         2.407409
