19
Iteration:  3202
 C         0.369840         0.336287         0.103538
 C         1.489443        -0.575199        -0.124651
 C         1.572630        -1.248237        -1.612117
 C         2.512691        -0.134380        -1.162632
 O         3.824650        -0.531029        -0.836778
 C         4.140914        -0.389946         0.500390
 C         4.457341        -1.552851         1.262302
 C         3.189912        -0.923537         1.487987
 O         2.020178        -1.421786         0.901601
 H         0.782610         1.341337         0.462568
 H        -0.260951         0.512345        -0.723971
 H        -0.159386         0.039993         1.022554
 H         2.013892        -2.248760        -1.515621
 H         0.910296        -1.131831        -2.364368
 H         2.402374         0.850281        -1.574830
 H         4.586180         0.685461         0.768893
 H         4.517019        -2.584040         0.754648
 H         5.189523        -1.547075         2.064927
 H         3.143446        -0.250300         2.330481
