19
Iteration:   737charge 0 multiplicity 1
 C         0.280323         0.285648         0.061001
 C         1.504887        -0.621810        -0.133253
 C         1.685708        -1.302656        -1.492682
 C         2.516388        -0.102374        -1.079690
 O         3.908657        -0.419127        -0.945834
 C         4.194178        -0.322294         0.466160
 C         4.352540        -1.749031         1.260946
 C         3.162435        -0.850842         1.514408
 O         1.965092        -1.347484         0.951746
 H         0.575154         1.376234         0.452474
 H        -0.321726         0.148306        -0.834283
 H        -0.361898        -0.220782         0.851531
 H         2.258107        -2.232839        -1.577196
 H         1.064067        -1.035285        -2.396502
 H         2.435554         0.839008        -1.607684
 H         5.055664         0.469277         0.620378
 H         4.290431        -2.428969         0.413930
 H         5.095638        -1.729196         2.081254
 H         3.007607        -0.382796         2.463518
