19
Iteration:   746charge 0 multiplicity 1
 C         0.310530         0.241041         0.082811
 C         1.443254        -0.597519        -0.173443
 C         1.670162        -1.261203        -1.559557
 C         2.543352        -0.135477        -1.150264
 O         3.859981        -0.398332        -0.941932
 C         4.216753        -0.336549         0.547312
 C         4.394447        -1.712138         1.287994
 C         3.208510        -0.852664         1.500727
 O         1.949092        -1.364442         0.948658
 H         0.754432         1.313112         0.341168
 H        -0.297574         0.555905        -0.680228
 H        -0.292270        -0.137036         1.021705
 H         2.197301        -2.230806        -1.339039
 H         0.963570        -1.402277        -2.455195
 H         2.340383         0.871885        -1.608653
 H         4.874448         0.487334         0.770240
 H         4.277704        -2.620922         0.621288
 H         5.174230        -1.851018         2.126512
 H         3.054007        -0.349593         2.387261
