19
Iteration:  4830charge 0 multiplicity 1
 C         0.528236         0.528058         0.376813
 C         1.434078        -0.653140        -0.242025
 C         1.593801        -1.304747        -1.557624
 C         2.596205        -0.258218        -1.266702
 O         3.921734        -0.516835        -0.884326
 C         4.134684        -0.264158         0.545732
 C         4.295343        -1.549490         1.344489
 C         3.016089        -0.876170         1.461819
 O         2.014338        -1.511793         0.755557
 H         0.280224         1.262581        -0.476037
 H        -0.247873        -0.136236         0.803544
 H         1.256218         1.078633         0.986539
 H         1.881451        -2.333570        -1.503646
 H         0.918347        -1.164681        -2.485935
 H         2.478757         0.760344        -1.778042
 H         4.686733         0.606589         0.652031
 H         4.397637        -2.547628         0.849342
 H         4.896496        -1.438667         2.295492
 H         2.729375        -0.527287         2.480125
