19
Iteration:  2005
 C         0.403290         0.389118         0.278774
 C         1.508291        -0.597142        -0.261693
 C         1.518923        -1.240001        -1.600269
 C         2.641448        -0.270022        -1.197786
 O         3.907411        -0.474977        -0.848833
 C         4.210358        -0.313793         0.559367
 C         4.373114        -1.539817         1.355351
 C         3.079413        -0.829678         1.450902
 O         2.008569        -1.499972         0.779450
 H         0.784367         0.931338         1.091819
 H        -0.074554         1.026035        -0.499468
 H        -0.400165        -0.350829         0.725865
 H         1.690661        -2.295605        -1.464767
 H         0.834001        -1.084632        -2.472879
 H         2.368368         0.651761        -1.711504
 H         4.844483         0.563675         0.708392
 H         4.231538        -2.512560         0.872206
 H         5.077934        -1.593962         2.166943
 H         2.614310        -0.347554         2.391914
