19
Iteration:  2695charge 0 multiplicity 1
 C         0.275157         0.394505         0.087360
 C         1.555576        -0.573916        -0.208669
 C         1.536995        -1.322493        -1.451224
 C         2.612787        -0.148784        -1.146500
 O         3.832087        -0.653704        -0.910438
 C         4.106722        -0.236879         0.468034
 C         4.498590        -1.570475         1.253855
 C         3.197605        -0.860351         1.513521
 O         1.993870        -1.397166         0.931411
 H        -0.633323        -0.108101        -0.259206
 H         0.190747         0.462293         1.172990
 H         0.531540         1.249240        -0.488904
 H         2.162835        -2.261757        -1.331252
 H         0.606511        -1.400359        -2.211004
 H         2.528033         0.862795        -1.680914
 H         4.448972         0.733668         0.621227
 H         4.723860        -2.541347         0.693067
 H         5.212757        -1.447570         2.165129
 H         3.048907        -0.344416         2.506613
