19
Iteration:   621charge 0 multiplicity 1
 C         0.390224         0.324606         0.191206
 C         1.511239        -0.596908        -0.215210
 C         1.546682        -1.249114        -1.624140
 C         2.491868        -0.187226        -1.140865
 O         3.824054        -0.535355        -0.846522
 C         4.267661        -0.344024         0.471573
 C         4.518348        -1.535480         1.417138
 C         3.097861        -0.897081         1.512289
 O         2.013860        -1.450279         0.794131
 H         0.698426         0.732277         1.089955
 H         0.245529         1.258481        -0.556125
 H        -0.564367        -0.069844         0.340065
 H         1.920768        -2.242966        -1.788508
 H         0.763392        -1.024692        -2.337223
 H         2.286025         0.767374        -1.641832
 H         4.574506         0.694323         0.569208
 H         4.367421        -2.473860         0.913696
 H         5.165907        -1.343168         2.281588
 H         2.691431        -0.140967         2.342114
