19
Iteration:  4180charge 0 multiplicity 1
 C         0.261669         0.263211         0.209423
 C         1.500021        -0.513724        -0.224961
 C         1.618366        -1.247781        -1.521612
 C         2.585239        -0.071850        -1.183152
 O         3.919695        -0.506046        -0.873469
 C         4.241681        -0.477872         0.491756
 C         4.374602        -1.718449         1.337062
 C         3.140096        -0.852828         1.435556
 O         1.992691        -1.300964         0.819685
 H         0.047629         1.106234        -0.413156
 H        -0.674683        -0.402621         0.297920
 H         0.275868         0.597547         1.253682
 H         2.039425        -2.227396        -1.501577
 H         0.757243        -1.259579        -2.211961
 H         2.424398         0.971744        -1.634413
 H         4.837282         0.551156         0.744508
 H         4.447365        -2.783705         1.078381
 H         5.002549        -1.596778         2.166311
 H         3.027749        -0.037482         2.264695
