19
Iteration:    56charge 0 multiplicity 1
 C         0.435189         0.300120         0.282264
 C         1.416212        -0.672758        -0.294672
 C         1.469984        -1.250880        -1.678762
 C         2.554830        -0.215817        -1.238098
 O         3.807210        -0.678462        -0.808304
 C         4.224075        -0.286918         0.490836
 C         4.472538        -1.467892         1.418697
 C         3.116653        -0.763479         1.542280
 O         2.068247        -1.386365         0.780957
 H         0.641312         0.324418         1.368072
 H         0.644609         1.285610        -0.078239
 H        -0.643200         0.119442         0.214369
 H         1.802679        -2.249022        -1.841704
 H         0.725557        -0.942498        -2.429290
 H         2.469578         0.765174        -1.634991
 H         4.985334         0.514716         0.490289
 H         4.671187        -2.415927         1.052074
 H         5.044854        -1.116563         2.268447
 H         2.812738        -0.391871         2.472229
