19
Iteration:   649
 C         0.266899         0.262329         0.122103
 C         1.542304        -0.596968        -0.127191
 C         1.635251        -1.215329        -1.551563
 C         2.553802        -0.170937        -1.126585
 O         3.926451        -0.529611        -0.904219
 C         4.218456        -0.315364         0.417152
 C         4.389960        -1.619838         1.263334
 C         3.107921        -0.815709         1.533893
 O         2.012507        -1.411469         0.914520
 H         0.284543         0.877173         1.148026
 H         0.208405         1.115904        -0.466904
 H        -0.728626        -0.321344         0.030738
 H         2.070897        -2.248854        -1.653037
 H         0.733450        -1.153278        -2.209753
 H         2.376637         0.814626        -1.567410
 H         4.852871         0.678421         0.597412
 H         4.137510        -2.576081         0.739023
 H         4.999421        -1.705241         2.214594
 H         2.912329        -0.191394         2.348504
