19
Iteration:  3678
 C         0.219320         0.214356         0.246765
 C         1.504894        -0.503459        -0.241852
 C         1.687028        -1.164755        -1.572949
 C         2.612997        -0.114558        -1.184868
 O         3.951160        -0.524138        -0.931365
 C         4.199171        -0.490733         0.453597
 C         4.392377        -1.688829         1.311704
 C         3.151387        -0.788848         1.477819
 O         1.894270        -1.299954         0.935166
 H        -0.058363         0.969971        -0.415077
 H        -0.577396        -0.536209         0.046787
 H         0.408380         0.464034         1.265645
 H         1.874002        -2.206463        -1.586829
 H         0.855210        -0.870613        -2.306158
 H         2.612645         0.860757        -1.690746
 H         5.138077         0.149155         0.828400
 H         4.211592        -2.761031         0.995952
 H         5.208585        -1.599405         2.132756
 H         3.032745        -0.262617         2.501358
