19
Iteration:  2423
 C         0.296810         0.257845         0.111729
 C         1.539965        -0.555643        -0.171654
 C         1.679470        -1.198502        -1.560726
 C         2.562892        -0.123759        -1.223926
 O         3.843583        -0.563993        -0.894157
 C         4.233279        -0.345102         0.547729
 C         4.419741        -1.658218         1.292920
 C         3.130136        -0.833018         1.534575
 O         1.961147        -1.381794         0.907853
 H         0.598561         1.226701         0.545315
 H        -0.421109         0.293277        -0.685696
 H        -0.273957        -0.172471         0.869137
 H         2.099792        -2.171540        -1.697749
 H         0.827778        -1.013567        -2.277685
 H         2.336654         0.889296        -1.530640
 H         4.675271         0.516252         0.746659
 H         4.238944        -2.496329         0.685466
 H         5.082449        -1.762302         2.118033
 H         3.053691        -0.128386         2.360370
