19
Iteration:  4701charge 0 multiplicity 1
 C         0.330530         0.372049         0.186969
 C         1.490493        -0.591489        -0.167594
 C         1.598479        -1.299587        -1.519936
 C         2.565487        -0.188497        -1.169373
 O         3.957703        -0.342058        -0.982290
 C         4.281459        -0.463622         0.488776
 C         4.308984        -1.721136         1.333539
 C         3.119420        -0.828492         1.427902
 O         1.923071        -1.364655         0.917882
 H         0.020073         0.811685        -0.748875
 H        -0.390947        -0.321392         0.581640
 H         0.663581         0.948534         1.069149
 H         2.230325        -2.259633        -1.435254
 H         0.956528        -1.269034        -2.339982
 H         2.307836         0.829696        -1.610751
 H         5.086148         0.366198         0.763097
 H         4.170760        -2.768925         0.979542
 H         4.991355        -1.521477         2.162349
 H         2.970577        -0.279326         2.360623
