19
Iteration:  1562charge 0 multiplicity 1
 C         0.165069         0.187590         0.028955
 C         1.427943        -0.621690        -0.146964
 C         1.654658        -1.206742        -1.581755
 C         2.504851        -0.066576        -1.099200
 O         3.938936        -0.477688        -0.893071
 C         4.278391        -0.433152         0.476509
 C         4.431600        -1.796939         1.312262
 C         3.254990        -0.858702         1.491150
 O         1.965608        -1.198729         0.975100
 H         0.350823         1.002167         0.671458
 H        -0.242831         0.652333        -0.964621
 H        -0.574181        -0.492707         0.398477
 H         2.174752        -2.146920        -1.670329
 H         0.922158        -0.769291        -2.227850
 H         2.350168         0.906968        -1.594352
 H         4.882293         0.543805         0.733378
 H         4.121763        -2.618934         0.705237
 H         5.070137        -1.855385         2.193935
 H         3.303959        -0.267693         2.395315
