19
Iteration:  3242
 C         0.398441         0.364360         0.240609
 C         1.475491        -0.614757        -0.245184
 C         1.531714        -1.190975        -1.602333
 C         2.562878        -0.219530        -1.134378
 O         3.904029        -0.596086        -0.832775
 C         4.191051        -0.267897         0.480786
 C         4.481074        -1.538324         1.305721
 C         3.114197        -0.892643         1.399931
 O         1.984653        -1.472878         0.878549
 H         0.803565         1.380555         0.243188
 H        -0.601015         0.201956        -0.327412
 H         0.052355         0.256005         1.301018
 H         1.760435        -2.302929        -1.696535
 H         0.882238        -0.900280        -2.460485
 H         2.469119         0.816928        -1.449785
 H         4.400286         0.722681         0.701045
 H         4.493731        -2.492234         0.791141
 H         5.055254        -1.424452         2.207645
 H         2.849842        -0.273573         2.332963
