19
Iteration:  2313charge 0 multiplicity 1
 C         0.213664         0.312731         0.022301
 C         1.502709        -0.586542        -0.194706
 C         1.639008        -1.243290        -1.506033
 C         2.582885        -0.129606        -1.083195
 O         3.866400        -0.579557        -0.849818
 C         4.197828        -0.353461         0.530346
 C         4.563289        -1.625010         1.212674
 C         3.157156        -0.903732         1.457226
 O         1.909666        -1.307299         0.979925
 H         0.074534         0.829286         1.018098
 H         0.337899         1.096298        -0.772767
 H        -0.680959        -0.253461        -0.159170
 H         2.105871        -2.260910        -1.587767
 H         0.819459        -1.022099        -2.152962
 H         2.516173         0.816630        -1.678129
 H         4.793025         0.445231         0.668072
 H         4.395811        -2.526189         0.580641
 H         5.408238        -1.554731         1.941976
 H         2.971612        -0.460504         2.524076
