19
Iteration:  4844charge 0 multiplicity 1
 C         0.593083         0.458964         0.315070
 C         1.548176        -0.528609        -0.241846
 C         1.586268        -1.339993        -1.576130
 C         2.577754        -0.235107        -1.279145
 O         3.896514        -0.489372        -0.861156
 C         4.038010        -0.368347         0.518799
 C         4.440091        -1.540576         1.392000
 C         3.031323        -0.923654         1.447225
 O         1.898201        -1.497152         0.764111
 H         0.044312         1.017319        -0.432239
 H        -0.254492         0.170744         0.953230
 H         1.112288         1.102992         1.125777
 H         1.927179        -2.357337        -1.475322
 H         0.819478        -1.059504        -2.323798
 H         2.442940         0.693570        -1.930852
 H         4.486631         0.678944         0.943469
 H         4.531391        -2.456561         0.801006
 H         5.107942        -1.400148         2.290876
 H         2.726459        -0.313138         2.398796
