19
Iteration:  2989
 C         0.285334         0.377469         0.241032
 C         1.407804        -0.525079        -0.274354
 C         1.547607        -1.220607        -1.600383
 C         2.562923        -0.114998        -1.123511
 O         3.938156        -0.678025        -0.828497
 C         4.229986        -0.362314         0.515628
 C         4.480561        -1.500984         1.379781
 C         3.097314        -0.829425         1.452545
 O         1.998458        -1.508195         0.791853
 H         0.670355         1.341899         0.401437
 H        -0.515675         0.305870        -0.529497
 H         0.064113         0.013325         1.196641
 H         1.937048        -2.344091        -1.457516
 H         0.968233        -0.905178        -2.515558
 H         2.615316         0.872466        -1.700585
 H         4.689557         0.537685         0.507716
 H         4.437512        -2.425661         0.845734
 H         5.314950        -1.413431         2.050892
 H         2.931326        -0.327461         2.416971
