19
Iteration:   819
 C         0.426122         0.291713         0.237514
 C         1.449499        -0.653705        -0.188798
 C         1.600630        -1.165589        -1.641601
 C         2.540992        -0.198376        -1.153925
 O         3.827989        -0.627567        -0.886358
 C         4.146327        -0.325385         0.469046
 C         4.457030        -1.438518         1.414902
 C         3.102653        -0.834969         1.473965
 O         2.053032        -1.471873         0.786186
 H         0.603163         0.529946         1.225255
 H         0.450025         1.264242        -0.265969
 H        -0.585634        -0.167689         0.234777
 H         1.783020        -2.249574        -1.691471
 H         0.884005        -0.806343        -2.408411
 H         2.469353         0.892160        -1.404285
 H         4.586891         0.618902         0.554749
 H         4.599479        -2.477671         1.056102
 H         5.145917        -1.145534         2.260540
 H         2.727679        -0.406308         2.420702
