19
Iteration:  4149
 C         0.352334         0.415093         0.165198
 C         1.489397        -0.584082        -0.205859
 C         1.548306        -1.281843        -1.573822
 C         2.605738        -0.185288        -1.158472
 O         3.921552        -0.503707        -0.787824
 C         4.181348        -0.269842         0.546293
 C         4.435473        -1.692293         1.186143
 C         3.131658        -0.910473         1.547475
 O         1.987496        -1.420950         0.837604
 H         0.056786         0.899833        -0.797369
 H        -0.658248        -0.214868         0.454857
 H         0.620412         1.186243         0.949710
 H         1.727887        -2.341205        -1.661118
 H         0.796065        -1.114398        -2.376714
 H         2.396226         0.857439        -1.567552
 H         4.697090         0.653777         0.918564
 H         4.330949        -2.511452         0.460255
 H         5.052573        -1.652437         2.043119
 H         2.949008        -0.293847         2.418990
