19
Iteration:  3221charge 0 multiplicity 1
 C         0.440381         0.395809         0.169088
 C         1.436329        -0.654299        -0.182620
 C         1.667553        -1.237326        -1.570987
 C         2.551164        -0.072469        -1.158193
 O         3.814476        -0.591326        -0.928392
 C         4.096579        -0.321108         0.513907
 C         4.560077        -1.544999         1.315641
 C         3.128138        -0.909944         1.495823
 O         1.891770        -1.463187         0.903516
 H         0.830799         1.362127         0.348919
 H        -0.397151         0.243436        -0.452589
 H        -0.052392         0.215000         1.141379
 H         2.213944        -2.149880        -1.909812
 H         0.745314        -1.223963        -2.183165
 H         2.542436         0.914968        -1.586121
 H         4.736796         0.485986         0.480756
 H         4.666619        -2.420901         0.682106
 H         5.344689        -1.337639         2.045064
 H         2.936662        -0.517716         2.559162
