19
Iteration:   212
 C         0.273931         0.258358         0.021691
 C         1.513871        -0.611692        -0.135722
 C         1.609357        -1.317421        -1.473685
 C         2.453633        -0.082488        -1.148065
 O         3.874356        -0.533310        -0.841680
 C         4.230426        -0.315068         0.512822
 C         4.427638        -1.674404         1.246248
 C         3.230246        -0.870525         1.466469
 O         1.985117        -1.264578         0.942484
 H         0.693650         1.193741         0.675234
 H         0.006254         0.591670        -0.920269
 H        -0.701252        -0.234917         0.468514
 H         2.089042        -2.270266        -1.674461
 H         0.655486        -1.239848        -2.063948
 H         2.561044         0.701069        -1.946172
 H         4.822049         0.636521         0.853774
 H         4.304340        -2.380159         0.400595
 H         5.166918        -1.963272         2.054089
 H         3.219538        -0.332330         2.390391
