19
Iteration:   245
 C         0.292888         0.307502         0.156816
 C         1.423236        -0.545298        -0.162431
 C         1.628390        -1.310330        -1.597987
 C         2.489684        -0.170669        -1.158727
 O         3.961430        -0.540965        -0.953666
 C         4.216132        -0.358205         0.441102
 C         4.469470        -1.567042         1.334525
 C         3.167134        -0.854928         1.487595
 O         1.918887        -1.372791         0.987167
 H         0.398291         0.763039         1.258543
 H         0.355118         1.128955        -0.488879
 H        -0.727443        -0.244498         0.136312
 H         2.062321        -2.290204        -1.434193
 H         0.839128        -1.207754        -2.374113
 H         2.619561         0.719633        -1.802707
 H         4.812686         0.607799         0.683137
 H         4.388314        -2.554453         0.828613
 H         5.334640        -1.571474         2.059367
 H         3.025222        -0.171263         2.307314
