19
Iteration:  4619charge 0 multiplicity 1
 C         0.354796         0.405276         0.158660
 C         1.402279        -0.607534        -0.141006
 C         1.618074        -1.198880        -1.640228
 C         2.574437        -0.149475        -1.058176
 O         3.863332        -0.625059        -0.901726
 C         4.241959        -0.381918         0.453249
 C         4.472789        -1.525825         1.350190
 C         3.199717        -0.893126         1.456800
 O         1.939222        -1.444381         0.873278
 H        -0.111235         1.018365        -0.700318
 H        -0.631193        -0.122935         0.493939
 H         0.509873         1.284164         0.803242
 H         1.843701        -2.271866        -1.610458
 H         0.830374        -0.996990        -2.407149
 H         2.379994         0.863165        -1.396341
 H         4.862717         0.445476         0.587637
 H         4.494554        -2.528880         0.848442
 H         5.191933        -1.358761         2.159502
 H         2.860942        -0.438221         2.441680
