19
Iteration:  3144
 C         0.271832         0.220531         0.229065
 C         1.547694        -0.539600        -0.179173
 C         1.676561        -1.297433        -1.522630
 C         2.530051        -0.091016        -1.256749
 O         3.841786        -0.527598        -0.971089
 C         4.249249        -0.443296         0.461058
 C         4.392648        -1.673415         1.351384
 C         3.158477        -0.792419         1.481018
 O         1.976415        -1.281577         0.912336
 H         0.410052         0.322023         1.341698
 H         0.156851         1.250857        -0.101987
 H        -0.571836        -0.414658        -0.085919
 H         2.172806        -2.276529        -1.521549
 H         0.849817        -1.232504        -2.393936
 H         2.464689         0.970226        -1.615699
 H         4.747879         0.483104         0.709990
 H         4.021480        -2.592993         0.960565
 H         5.111011        -1.467860         2.171288
 H         3.067867        -0.119686         2.421658
