19
Iteration:  2797charge 0 multiplicity 1
 C         0.365542         0.328190         0.310207
 C         1.449667        -0.615904        -0.251378
 C         1.562134        -1.250363        -1.637173
 C         2.557627        -0.209248        -1.166587
 O         3.839780        -0.650875        -0.866357
 C         4.235537        -0.306890         0.433039
 C         4.456336        -1.541945         1.457043
 C         3.169820        -0.728541         1.386947
 O         1.977105        -1.394047         0.837075
 H         0.136827        -0.273797         1.237566
 H         0.684911         1.334480         0.247167
 H        -0.541809         0.231001        -0.344968
 H         1.721749        -2.329377        -1.725898
 H         0.927229        -0.748807        -2.286674
 H         2.481347         0.679110        -1.738351
 H         4.889845         0.507207         0.717559
 H         4.402362        -2.527885         1.187881
 H         5.209609        -1.362989         2.150954
 H         2.895124        -0.323757         2.352870
