19
Iteration:  1955
 C         0.362000         0.287060         0.314824
 C         1.494540        -0.551173        -0.225207
 C         1.537821        -1.093845        -1.725291
 C         2.566263        -0.138532        -1.075835
 O         3.866776        -0.728084        -0.828674
 C         4.140089        -0.446176         0.419948
 C         4.519688        -1.408162         1.497549
 C         3.082577        -0.789057         1.443858
 O         2.011533        -1.562812         0.749579
 H         0.731152         0.803499         1.287784
 H         0.258901         1.122602        -0.470852
 H        -0.551009        -0.196556         0.226525
 H         1.848182        -2.111716        -1.849555
 H         0.926772        -0.837007        -2.574848
 H         2.416182         0.876900        -1.498820
 H         4.654993         0.626681         0.491708
 H         4.705231        -2.455567         1.151580
 H         5.146851        -0.891689         2.274079
 H         2.811283        -0.049786         2.148129
