19
Iteration:   192
 C         0.236478         0.275111         0.050897
 C         1.438871        -0.545407        -0.268806
 C         1.600287        -1.331098        -1.549473
 C         2.512097        -0.178343        -1.211499
 O         3.837236        -0.419754        -0.870315
 C         4.257942        -0.412264         0.542660
 C         4.511553        -1.736612         1.245229
 C         3.202007        -0.838441         1.537156
 O         1.983858        -1.241290         1.018380
 H         0.506140         1.304143         0.466384
 H        -0.387135         0.356057        -0.796046
 H        -0.311909        -0.335129         0.805896
 H         2.043898        -2.310321        -1.534338
 H         0.884617        -1.170785        -2.372417
 H         2.525896         0.898124        -1.455561
 H         5.009936         0.409666         0.657436
 H         4.409010        -2.758197         0.808917
 H         5.343575        -1.654773         2.024590
 H         3.162341        -0.375908         2.593769
