19
Iteration:  3675
 C         0.191653         0.196872         0.253528
 C         1.515631        -0.484463        -0.233391
 C         1.703760        -1.152648        -1.556039
 C         2.653474        -0.112619        -1.189206
 O         3.942649        -0.537583        -0.948364
 C         4.205092        -0.470098         0.450466
 C         4.400594        -1.703924         1.320129
 C         3.129647        -0.787320         1.475411
 O         1.893970        -1.305393         0.932137
 H        -0.100952         1.142036        -0.365066
 H        -0.580868        -0.543956         0.028432
 H         0.397713         0.544054         1.279008
 H         1.870678        -2.216760        -1.628656
 H         0.914234        -1.041174        -2.211910
 H         2.552110         0.834669        -1.647041
 H         5.039801         0.163118         0.766667
 H         4.130673        -2.747480         0.975417
 H         5.187320        -1.576354         2.080375
 H         3.045237        -0.320409         2.447144
