19
Iteration:  2375charge 0 multiplicity 1
 C         0.307275         0.279761         0.153249
 C         1.507415        -0.514328        -0.221343
 C         1.591086        -1.379600        -1.523490
 C         2.617998        -0.191889        -1.208484
 O         3.953338        -0.239115        -0.888144
 C         4.205245        -0.394556         0.514669
 C         4.296402        -1.754077         1.315138
 C         3.181797        -0.859034         1.461747
 O         1.971935        -1.317482         0.940743
 H         0.482254         1.168521         0.719503
 H        -0.323249         0.364404        -0.791054
 H        -0.444220        -0.476122         0.654545
 H         1.922426        -2.426833        -1.336948
 H         0.906422        -1.343315        -2.345904
 H         2.432204         0.595073        -1.986496
 H         5.058820         0.282550         0.892089
 H         3.818416        -2.604630         0.706859
 H         5.184835        -1.903198         1.978395
 H         3.114642        -0.395381         2.491364
