19
Iteration:   392
 C         0.316169         0.308991         0.204254
 C         1.417325        -0.603874        -0.244984
 C         1.661706        -1.270990        -1.522988
 C         2.554217        -0.267209        -1.247084
 O         3.901096        -0.408365        -0.906664
 C         4.200937        -0.399659         0.518024
 C         4.393327        -1.623442         1.301295
 C         3.134720        -0.888887         1.472975
 O         1.994201        -1.301479         0.942249
 H         0.678890         1.208881         0.616486
 H        -0.456749         0.642552        -0.629267
 H        -0.119469        -0.349524         0.931888
 H         2.118072        -2.270390        -1.533427
 H         0.928922        -1.002136        -2.312751
 H         2.357929         0.643038        -1.822684
 H         4.899563         0.305660         0.746059
 H         4.483600        -2.600411         0.836177
 H         5.100262        -1.561622         2.138761
 H         2.980715        -0.140503         2.400254
