19
Iteration:   430
 C         0.223410         0.267888        -0.011391
 C         1.493918        -0.640873        -0.109636
 C         1.673393        -1.301934        -1.397498
 C         2.534458        -0.171374        -1.158463
 O         3.915655        -0.416540        -0.887507
 C         4.243902        -0.364374         0.472228
 C         4.350873        -1.738099         1.192464
 C         3.218789        -0.752679         1.521156
 O         1.966143        -1.313521         0.954324
 H         0.393397         0.909195         0.930068
 H        -0.032892         0.870955        -0.793977
 H        -0.736097        -0.262547         0.283423
 H         2.124326        -2.305095        -1.498833
 H         0.927864        -1.213697        -2.186786
 H         2.401623         0.797984        -1.645800
 H         4.970528         0.577714         0.610310
 H         4.141226        -2.522508         0.456255
 H         5.105741        -1.897600         1.954760
 H         3.171249        -0.277779         2.440204
