19
Iteration:   624
 C         0.391324         0.312019         0.158194
 C         1.503976        -0.618951        -0.209286
 C         1.535568        -1.248829        -1.595704
 C         2.503297        -0.175260        -1.141615
 O         3.817775        -0.526590        -0.847350
 C         4.282031        -0.344200         0.466753
 C         4.506790        -1.542024         1.413622
 C         3.082572        -0.871897         1.496395
 O         2.018893        -1.442153         0.807721
 H         0.694492         0.804659         1.112418
 H         0.294958         1.221812        -0.444530
 H        -0.684643        -0.109285         0.300242
 H         1.927177        -2.225680        -1.746593
 H         0.824065        -1.011023        -2.356979
 H         2.375683         0.816428        -1.633201
 H         4.541872         0.604842         0.693431
 H         4.397791        -2.503342         0.937197
 H         5.278893        -1.427897         2.169941
 H         2.736888        -0.235033         2.260031
