19
Iteration:  2474charge 0 multiplicity 1
 C         0.308453         0.364037         0.263158
 C         1.429305        -0.604800        -0.229002
 C         1.565603        -1.192840        -1.603582
 C         2.587528        -0.111576        -1.158182
 O         3.871005        -0.710534        -0.808119
 C         4.147790        -0.333021         0.442821
 C         4.508343        -1.518260         1.466338
 C         3.120355        -0.810550         1.410807
 O         2.033722        -1.490328         0.774432
 H         0.505446         0.646300         1.260926
 H         0.408138         1.225392        -0.521952
 H        -0.781384         0.024620         0.275728
 H         1.944330        -2.148928        -1.729045
 H         0.835101        -1.019791        -2.373859
 H         2.612992         0.762089        -1.830510
 H         4.660640         0.708345         0.535448
 H         4.639975        -2.425827         0.914336
 H         5.177851        -1.215051         2.267920
 H         2.950336        -0.299079         2.350989
