19
Iteration:  3382
 C         0.287536         0.327361         0.181896
 C         1.440175        -0.585673        -0.189681
 C         1.630456        -1.278241        -1.526878
 C         2.564079        -0.150227        -1.107250
 O         3.990598        -0.427444        -0.830850
 C         4.228996        -0.336196         0.528178
 C         4.410709        -1.729134         1.226279
 C         3.115067        -0.856503         1.374383
 O         1.916014        -1.369574         0.875457
 H        -0.283210         0.323613        -0.706178
 H        -0.219790        -0.048242         1.147979
 H         0.704674         1.286777         0.440970
 H         1.953230        -2.375616        -1.381632
 H         1.044760        -1.131372        -2.448507
 H         2.455579         0.747637        -1.745442
 H         4.838582         0.627747         0.686630
 H         4.300228        -2.646056         0.658798
 H         4.955436        -1.730543         2.114736
 H         3.059113        -0.420672         2.396165
