19
Iteration:  1538charge 0 multiplicity 1
 C         0.293289         0.211754         0.076535
 C         1.508800        -0.608583        -0.210819
 C         1.671601        -1.311621        -1.584252
 C         2.530949        -0.049771        -1.181610
 O         3.849210        -0.415256        -0.813338
 C         4.253592        -0.483051         0.513534
 C         4.342809        -1.730035         1.147870
 C         3.187987        -0.809878         1.589602
 O         1.956831        -1.248238         1.016846
 H         0.401280         0.983724         0.885940
 H        -0.072785         0.761923        -0.838842
 H        -0.419628        -0.519898         0.264489
 H         2.392224        -2.142060        -1.447527
 H         0.875821        -1.158210        -2.339203
 H         2.404589         0.855865        -1.741655
 H         5.141622         0.317191         0.687095
 H         3.938645        -2.567222         0.555601
 H         5.210796        -1.768659         1.853760
 H         3.197752        -0.192482         2.382971
