19
Iteration:  2241charge 0 multiplicity 1
 C         0.524338         0.263448         0.396310
 C         1.543227        -0.649455        -0.274136
 C         1.592457        -1.186532        -1.667108
 C         2.550296        -0.097742        -1.211180
 O         3.875474        -0.632745        -0.962943
 C         4.140260        -0.334617         0.499089
 C         4.316744        -1.526102         1.526855
 C         3.036699        -0.786078         1.469984
 O         1.999803        -1.483258         0.727379
 H         0.928875         1.100527         1.063744
 H        -0.102812         0.653324        -0.368207
 H        -0.125108        -0.274907         1.139283
 H         1.886101        -2.229556        -1.921491
 H         0.939374        -0.797522        -2.438152
 H         2.620207         0.921704        -1.419931
 H         4.847955         0.641904         0.689819
 H         4.431603        -2.504872         1.250116
 H         4.806998        -1.180873         2.379848
 H         2.751029        -0.107056         2.222313
