19
Iteration:  3512
 C         0.285267         0.332379         0.255460
 C         1.498252        -0.610830        -0.167166
 C         1.633717        -1.153978        -1.683643
 C         2.542842        -0.091286        -1.063793
 O         3.836810        -0.675681        -0.927813
 C         4.235910        -0.389651         0.487774
 C         4.397739        -1.545166         1.429175
 C         3.149980        -0.778578         1.391819
 O         2.024223        -1.511990         0.841581
 H         0.172130         1.170575        -0.506176
 H        -0.658813        -0.143260         0.323577
 H         0.626426         0.873754         1.099278
 H         2.087264        -2.101406        -1.854064
 H         0.831803        -0.780305        -2.421361
 H         2.486524         0.900416        -1.545239
 H         4.828570         0.656560         0.576937
 H         4.398996        -2.513372         1.003474
 H         5.007021        -1.517962         2.341625
 H         2.957530        -0.137631         2.283592
