19
Iteration:  2407charge 0 multiplicity 1
 C         0.228343         0.295756         0.185567
 C         1.420841        -0.575862        -0.247758
 C         1.671355        -1.326803        -1.561825
 C         2.573138        -0.100929        -1.100406
 O         3.918444        -0.430777        -0.850784
 C         4.218849        -0.415511         0.499034
 C         4.336220        -1.696101         1.305810
 C         3.188648        -0.813680         1.443145
 O         2.001405        -1.320297         0.857230
 H         0.525987         1.301447         0.531559
 H        -0.376969         0.352620        -0.776167
 H        -0.128963        -0.222634         1.166261
 H         2.145715        -2.330984        -1.380939
 H         1.071938        -1.371561        -2.447268
 H         2.541890         0.794543        -1.771357
 H         5.132001         0.351767         0.770087
 H         4.035185        -2.643409         0.753880
 H         5.186335        -1.634233         2.036440
 H         2.937540        -0.401446         2.450175
