19
Iteration:  2348
 C         0.326765         0.297756         0.024282
 C         1.467332        -0.630549        -0.169256
 C         1.688920        -1.356426        -1.498058
 C         2.549187        -0.147482        -1.137906
 O         3.877341        -0.373054        -0.839087
 C         4.204743        -0.397432         0.516759
 C         4.426279        -1.699471         1.199045
 C         3.171402        -0.839161         1.469816
 O         1.898058        -1.283767         0.983769
 H         0.581600         1.009272         0.943736
 H         0.134579         0.917021        -0.836173
 H        -0.589381        -0.199489         0.151290
 H         2.283931        -2.274324        -1.542612
 H         0.746261        -1.322196        -2.100624
 H         2.419586         0.732445        -1.727861
 H         4.879482         0.414060         0.836405
 H         4.116978        -2.437392         0.533333
 H         5.265871        -1.934109         1.811719
 H         3.174422        -0.541378         2.485822
