19
Iteration:  1455charge 0 multiplicity 1
 C         0.428473         0.312491         0.155365
 C         1.541792        -0.613592        -0.190989
 C         1.560278        -1.212244        -1.539877
 C         2.563420        -0.123095        -1.155141
 O         3.841962        -0.590107        -0.883123
 C         4.176521        -0.259516         0.538736
 C         4.437019        -1.531692         1.294129
 C         3.083755        -0.875913         1.506109
 O         1.984049        -1.477804         0.826632
 H         0.768255         1.048962         0.847197
 H         0.133884         0.848717        -0.815485
 H        -0.482401        -0.178708         0.700110
 H         2.074784        -2.170014        -1.635512
 H         0.774020        -1.169474        -2.277570
 H         2.388460         0.880223        -1.659386
 H         4.705254         0.648925         0.722299
 H         4.273073        -2.473360         0.807506
 H         5.226555        -1.699145         2.013365
 H         2.864847        -0.437905         2.619101
