19
Iteration:  4913charge 0 multiplicity 1
 C         0.286558         0.201314         0.135015
 C         1.544450        -0.507270        -0.177583
 C         1.598331        -1.141694        -1.615397
 C         2.593284        -0.014422        -1.141821
 O         3.855644        -0.695864        -0.923144
 C         4.253678        -0.460760         0.462788
 C         4.399378        -1.656927         1.414685
 C         3.121403        -0.817808         1.497835
 O         1.951277        -1.298113         0.883197
 H        -0.119415         0.852963        -0.626713
 H        -0.591893        -0.358630         0.416721
 H         0.390359         0.810863         1.039671
 H         2.113323        -2.063075        -1.757987
 H         0.664192        -0.936066        -2.207323
 H         2.713299         0.932363        -1.593014
 H         5.128120         0.326027         0.515556
 H         4.427048        -2.693255         1.130336
 H         5.147058        -1.414788         2.139507
 H         3.088272        -0.211580         2.393212
