19
Iteration:  1492
 C         0.265672         0.331206         0.106312
 C         1.435641        -0.523490        -0.208574
 C         1.590028        -1.353563        -1.519818
 C         2.522081        -0.238696        -1.123616
 O         3.972548        -0.356452        -0.865051
 C         4.242459        -0.400920         0.554951
 C         4.568119        -1.666879         1.226912
 C         3.139330        -0.902911         1.469768
 O         1.875706        -1.349338         0.883396
 H         0.691510         1.031750         0.941271
 H         0.014314         0.983936        -0.624448
 H        -0.577704        -0.235438         0.490986
 H         1.935252        -2.338986        -1.239282
 H         1.065832        -1.011972        -2.415358
 H         2.475260         0.629284        -1.763132
 H         4.753082         0.507234         0.871704
 H         4.126255        -2.518943         0.688654
 H         5.340551        -1.592034         1.998574
 H         2.882115        -0.522273         2.404922
