19
Iteration:  1797charge 0 multiplicity 1
 C         0.208786         0.203675         0.051899
 C         1.496887        -0.530906        -0.135497
 C         1.745698        -1.289793        -1.436674
 C         2.663657        -0.101315        -1.227410
 O         3.950383        -0.410939        -0.913747
 C         4.188476        -0.400883         0.520223
 C         4.439269        -1.748790         1.103080
 C         3.153666        -0.900737         1.471649
 O         1.792162        -1.211561         1.078863
 H         0.334139         0.969783         0.870296
 H        -0.100139         0.784735        -0.792725
 H        -0.759172        -0.473353         0.368619
 H         2.393086        -2.178050        -1.224365
 H         0.864860        -1.415423        -2.190837
 H         2.496544         0.900610        -1.658035
 H         4.922837         0.325713         0.659143
 H         4.285019        -2.629359         0.417627
 H         5.193892        -1.936093         1.884972
 H         3.167222        -0.577300         2.580108
