19
Iteration:  4866charge 0 multiplicity 1
 C         0.511747         0.451150         0.165197
 C         1.434552        -0.623365        -0.260079
 C         1.485354        -1.226291        -1.590728
 C         2.595296        -0.221679        -1.203645
 O         3.919870        -0.572360        -0.826172
 C         4.137275        -0.314263         0.544563
 C         4.471317        -1.540771         1.335632
 C         3.076847        -0.933959         1.488025
 O         1.947371        -1.459904         0.818668
 H        -0.077484         0.929992        -0.573311
 H        -0.278487         0.074776         0.796117
 H         0.932689         1.156663         0.911591
 H         1.806499        -2.285361        -1.540893
 H         0.867282        -0.953585        -2.402034
 H         2.513585         0.848320        -1.496557
 H         4.633446         0.696698         0.773735
 H         4.642654        -2.477618         0.805608
 H         5.059399        -1.418271         2.260853
 H         2.912501        -0.580708         2.550488
