19
Iteration:  2115
 C         0.091573         0.161907         0.091912
 C         1.522870        -0.492309        -0.192080
 C         1.697895        -1.278081        -1.511423
 C         2.539258        -0.008449        -1.184328
 O         3.965420        -0.409512        -0.893599
 C         4.228679        -0.484119         0.479632
 C         4.368671        -1.862548         1.288513
 C         3.222746        -0.786428         1.530391
 O         1.983802        -1.243852         0.931348
 H        -0.013889         0.695694         0.995895
 H        -0.242270         0.892079        -0.703014
 H        -0.613942        -0.633630        -0.012888
 H         2.122691        -2.274688        -1.268835
 H         1.026379        -1.105999        -2.313793
 H         2.468892         0.957957        -1.736275
 H         4.915215         0.192029         0.816190
 H         3.947878        -2.825566         0.899292
 H         5.261660        -1.793981         2.019971
 H         3.323122        -0.065822         2.388889
