19
Iteration:  2352charge 0 multiplicity 1
 C         0.335510         0.296301         0.028314
 C         1.477714        -0.614567        -0.146900
 C         1.689285        -1.346423        -1.477679
 C         2.547817        -0.171778        -1.169502
 O         3.903673        -0.343982        -0.836186
 C         4.188207        -0.438929         0.503906
 C         4.410217        -1.714959         1.172384
 C         3.175240        -0.811554         1.523562
 O         1.899169        -1.279086         0.953289
 H         0.688864         0.864479         0.899599
 H         0.069642         0.837701        -0.904909
 H        -0.638962        -0.318713         0.258952
 H         2.135462        -2.333556        -1.597586
 H         0.761128        -1.326705        -2.079139
 H         2.400896         0.766069        -1.732563
 H         4.884041         0.477150         0.866829
 H         4.091685        -2.523702         0.450138
 H         5.251620        -1.786200         1.904895
 H         3.060093        -0.481105         2.576206
