19
Iteration:   427charge 0 multiplicity 1
 C         0.260266         0.271972         0.014479
 C         1.470606        -0.639628        -0.147250
 C         1.637020        -1.304286        -1.420265
 C         2.525578        -0.171287        -1.175081
 O         3.924961        -0.412180        -0.875808
 C         4.252436        -0.370703         0.498269
 C         4.362345        -1.730416         1.199407
 C         3.183783        -0.780512         1.501544
 O         1.996152        -1.300238         0.968163
 H         0.406328         0.861406         0.900430
 H        -0.146013         0.781124        -0.849353
 H        -0.710974        -0.252096         0.329516
 H         2.260509        -2.278593        -1.426785
 H         0.850690        -1.270718        -2.204925
 H         2.380532         0.837242        -1.668101
 H         4.931655         0.511912         0.693412
 H         4.061080        -2.499915         0.423246
 H         5.132602        -1.909829         1.979125
 H         3.233106        -0.104948         2.417615
