19
Iteration:   264charge 0 multiplicity 1
 C         0.319184         0.337888         0.227367
 C         1.543889        -0.690769        -0.222463
 C         1.540206        -1.280465        -1.521627
 C         2.553662        -0.218828        -1.267330
 O         3.838821        -0.537814        -0.878228
 C         4.191816        -0.375524         0.503682
 C         4.435088        -1.577010         1.401922
 C         3.174613        -0.761203         1.409845
 O         2.015191        -1.327676         0.821678
 H         0.425060         0.391115         1.360929
 H         0.261108         1.309799        -0.216554
 H        -0.670572        -0.259353         0.170831
 H         1.835693        -2.340330        -1.645015
 H         0.735069        -1.040808        -2.275301
 H         2.554153         0.856825        -1.600346
 H         4.861781         0.560781         0.756101
 H         4.542122        -2.607248         1.068812
 H         5.017905        -1.393699         2.328399
 H         3.110816        -0.265773         2.291474
