19
Iteration:  4538charge 0 multiplicity 1
 C         0.277266         0.304810         0.280990
 C         1.486743        -0.553192        -0.225716
 C         1.596461        -1.147585        -1.544297
 C         2.566383        -0.141972        -1.165317
 O         3.835442        -0.670478        -0.879254
 C         4.246286        -0.424051         0.460701
 C         4.411498        -1.553255         1.387795
 C         3.130603        -0.814650         1.451898
 O         2.034371        -1.421718         0.754086
 H        -0.005301         1.040207        -0.433326
 H        -0.629222        -0.172079         0.571515
 H         0.688338         0.909111         1.160244
 H         1.898900        -2.145044        -1.573278
 H         1.054738        -0.843273        -2.390519
 H         2.661157         0.853941        -1.586557
 H         4.867253         0.540610         0.552734
 H         4.498319        -2.570259         1.053728
 H         4.976252        -1.359867         2.275094
 H         2.926833        -0.255841         2.332630
