19
Iteration:    38
 C         0.435731         0.302863         0.313184
 C         1.539070        -0.600656        -0.216166
 C         1.522820        -1.254166        -1.572834
 C         2.550185        -0.216715        -1.192268
 O         3.888010        -0.604458        -0.894435
 C         4.195293        -0.359808         0.458149
 C         4.420066        -1.471014         1.488426
 C         3.097184        -0.772511         1.324821
 O         1.992602        -1.449643         0.800414
 H         0.548052         0.400392         1.473750
 H         0.393201         1.302620        -0.084268
 H        -0.557302        -0.204355         0.057574
 H         1.779170        -2.332323        -1.528899
 H         0.754155        -0.940828        -2.290578
 H         2.476410         0.777598        -1.720402
 H         4.494926         0.721230         0.648188
 H         4.452989        -2.497492         1.043411
 H         5.088035        -1.361561         2.350230
 H         2.798710         0.029325         2.028164
