19
Iteration:  3986charge 0 multiplicity 1
 C         0.157059        -0.425063         0.005123
 C         1.074775         0.472928        -0.761239
 C         0.432288         1.208169        -1.976080
 C         1.384624         1.969098        -2.910769
 O         1.970944         3.094600        -2.111100
 C         2.818886         2.069445        -2.594526
 C         3.463571         1.026496        -1.569890
 C         2.552056         0.464593        -0.550202
 O         1.791021         1.411688         0.156893
 H         0.318618        -1.516122        -0.336481
 H         0.569731        -0.466315         1.086996
 H        -0.859317        -0.021795         0.134837
 H        -0.252366         0.702059        -2.560742
 H        -0.173654         2.117144        -1.564900
 H         0.954682         2.096647        -3.929252
 H         3.584526         2.315943        -3.307637
 H         3.854964         0.277435        -2.306200
 H         4.341898         1.475517        -1.097828
 H         2.901468        -0.359279         0.050865
