19
Iteration:  3677
 C         0.108886        -0.555232        -0.082863
 C         1.044281         0.586642        -0.652227
 C         0.414479         1.410677        -1.836201
 C         1.376702         1.936468        -2.889701
 O         2.066121         3.044157        -2.295606
 C         2.799378         1.942322        -2.711994
 C         3.568957         1.196068        -1.495620
 C         2.500320         0.418191        -0.592273
 O         1.788820         1.338634         0.288227
 H         0.120257        -1.356577        -0.843537
 H         0.537080        -0.967190         0.894346
 H        -0.918865        -0.218883        -0.009069
 H        -0.444523         0.705771        -2.281721
 H        -0.292980         2.221131        -1.444010
 H         0.979606         2.173552        -3.920115
 H         3.313686         2.160001        -3.685651
 H         4.462886         0.675722        -1.878556
 H         3.931968         1.930245        -0.808688
 H         2.912769        -0.523317        -0.161640
