19
Iteration:  4606charge 0 multiplicity 1
 C         0.262624        -0.737893        -0.394220
 C         1.004807         0.623867        -0.581118
 C         0.499829         1.640073        -1.472067
 C         1.326213         1.946688        -2.754870
 O         2.206234         3.137021        -2.822874
 C         2.781707         1.773727        -2.788054
 C         3.417080         1.389358        -1.417450
 C         2.469523         0.495774        -0.555818
 O         1.651055         1.115397         0.552059
 H         0.025552        -1.276509        -1.348779
 H         0.971443        -1.468981         0.140048
 H        -0.696193        -0.515961         0.130776
 H        -0.420396         1.302527        -1.835827
 H         0.445344         2.627317        -0.816539
 H         0.767395         1.676312        -3.678039
 H         3.222441         1.516100        -3.703368
 H         4.357284         0.713820        -1.381613
 H         3.633878         2.379129        -0.912912
 H         2.868179        -0.424837        -0.093224
