19
Iteration:  2698charge 0 multiplicity 1
 C         0.166836        -0.547361        -0.012860
 C         1.040995         0.547897        -0.648555
 C         0.448241         1.288912        -1.908757
 C         1.396713         2.020353        -2.896417
 O         2.046821         3.240292        -2.461102
 C         2.799776         1.964347        -2.615387
 C         3.437777         1.161852        -1.532624
 C         2.489682         0.397809        -0.544428
 O         1.794283         1.320928         0.369874
 H        -0.182243        -1.195328        -0.863954
 H         0.929300        -1.163620         0.547123
 H        -0.663555        -0.364514         0.684946
 H        -0.040521         0.566314        -2.432118
 H        -0.371782         1.951655        -1.470097
 H         1.046565         2.020502        -3.963223
 H         3.422118         1.991532        -3.456867
 H         4.026424         0.313441        -1.966903
 H         4.173311         1.663090        -0.937026
 H         2.874915        -0.607463        -0.163230
