19
Iteration:  1699charge 0 multiplicity 1
 C         0.162914        -0.540208         0.052815
 C         1.026708         0.507592        -0.700275
 C         0.416388         1.264428        -1.914597
 C         1.335339         2.013334        -2.842781
 O         2.030588         3.125785        -2.229133
 C         2.827037         2.026298        -2.604135
 C         3.524893         1.065030        -1.631351
 C         2.519197         0.484011        -0.595480
 O         1.799258         1.373746         0.185211
 H         0.595253        -0.726901         0.963216
 H        -0.849607        -0.088795         0.412830
 H        -0.111132        -1.321840        -0.548260
 H        -0.027877         0.576895        -2.571010
 H        -0.409594         1.925115        -1.459964
 H         0.962682         2.165344        -3.893272
 H         3.477516         2.207626        -3.547450
 H         4.051880         0.243174        -2.179440
 H         4.342874         1.601281        -1.087284
 H         2.974503        -0.268309         0.053257
