19
Iteration:  3308
 C         0.258216        -0.683883        -0.471612
 C         1.065472         0.584614        -0.613210
 C         0.514376         1.749327        -1.475192
 C         1.304555         1.845051        -2.774646
 O         2.148621         2.997262        -2.932040
 C         2.804321         1.793023        -2.636942
 C         3.380500         1.488987        -1.354099
 C         2.483739         0.496988        -0.514273
 O         1.668570         1.071470         0.555423
 H        -0.367300        -0.687365        -1.433397
 H         0.914557        -1.661348        -0.181531
 H        -0.530735        -0.568378         0.290824
 H        -0.650812         1.668259        -1.542555
 H         0.883074         2.710453        -0.895825
 H         0.657397         1.546447        -3.619685
 H         3.443984         1.571991        -3.521400
 H         4.410089         1.118857        -1.534603
 H         3.484496         2.406954        -0.712796
 H         2.978088        -0.359433        -0.142179
