19
Iteration:  4137
 C         0.142518        -0.509282        -0.309445
 C         1.114134         0.558992        -0.675754
 C         0.439295         1.509309        -1.715792
 C         1.298256         1.930720        -2.769834
 O         2.072024         3.109566        -2.649068
 C         2.768839         1.784709        -2.704019
 C         3.434659         1.402031        -1.373557
 C         2.581619         0.444410        -0.522296
 O         1.806750         1.093223         0.496432
 H         0.018743        -1.302270        -1.101871
 H         0.517421        -0.888639         0.632146
 H        -0.783330        -0.085541        -0.151702
 H        -0.383794         0.921222        -2.161672
 H        -0.012807         2.364224        -1.233068
 H         0.827777         1.850843        -3.792606
 H         3.316239         1.626100        -3.619199
 H         4.438319         0.961799        -1.506453
 H         3.657363         2.437362        -1.069807
 H         3.029009        -0.440858        -0.094932
