19
Iteration:   811charge 0 multiplicity 1
 C         0.072441        -0.392251         0.073544
 C         1.075289         0.463805        -0.729304
 C         0.375802         1.386535        -1.693083
 C         1.238661         2.301658        -2.527278
 O         2.224469         3.155097        -1.957717
 C         2.617805         2.032535        -2.757071
 C         3.413350         0.939959        -2.016129
 C         2.559562         0.279655        -0.881904
 O         2.034984         1.150045         0.191556
 H        -0.599214         0.329255         0.580048
 H        -0.673436        -0.974134        -0.510337
 H         0.640151        -1.010136         0.745616
 H        -0.215447         0.790426        -2.515134
 H        -0.271416         1.994585        -0.981096
 H         0.739102         2.749679        -3.365938
 H         2.952055         2.141381        -3.836914
 H         3.942991         0.285799        -2.727750
 H         4.150587         1.527689        -1.501418
 H         2.998047        -0.716210        -0.633210
