19
Iteration:  3401
 C         0.115822        -0.685242        -0.346549
 C         1.050988         0.589537        -0.604494
 C         0.448206         1.652494        -1.483215
 C         1.333891         1.762397        -2.742564
 O         2.153760         3.129387        -2.895679
 C         2.793448         1.911148        -2.672674
 C         3.522110         1.444034        -1.385363
 C         2.517209         0.551219        -0.542235
 O         1.695963         1.007362         0.521145
 H        -0.002965        -1.266756        -1.192340
 H         0.484446        -1.167089         0.454987
 H        -0.916333        -0.357827        -0.148389
 H        -0.660884         1.504466        -1.851167
 H         0.561111         2.659526        -1.073918
 H         0.872668         1.699339        -3.751817
 H         3.361525         1.511383        -3.526294
 H         4.397910         0.880711        -1.771752
 H         3.959392         2.304218        -0.894996
 H         3.001164        -0.523026        -0.319801
