19
Iteration:  4235charge 0 multiplicity 1
 C         0.197511        -0.642473        -0.301368
 C         1.056499         0.619542        -0.608300
 C         0.467798         1.345042        -1.754659
 C         1.325493         1.915856        -2.766066
 O         2.113920         3.059906        -2.308498
 C         2.814995         1.839534        -2.731976
 C         3.488756         1.115381        -1.583766
 C         2.534295         0.583642        -0.555734
 O         1.657555         1.469631         0.364001
 H        -0.064929        -1.102734        -1.290823
 H         0.735515        -1.297904         0.446684
 H        -0.757384        -0.323202         0.060624
 H        -0.294551         0.609720        -2.191617
 H        -0.121759         2.146470        -1.389354
 H         0.883787         2.272034        -3.730856
 H         3.411050         1.977534        -3.633429
 H         4.224055         0.482629        -2.017457
 H         4.070573         1.821601        -0.989359
 H         2.978344        -0.225022         0.087202
