19
Iteration:  3406charge 0 multiplicity 1
 C         0.135220        -0.662767        -0.380755
 C         1.020994         0.579041        -0.578824
 C         0.387483         1.681808        -1.507525
 C         1.358231         1.765106        -2.765383
 O         2.153458         3.137749        -2.920497
 C         2.769546         1.932892        -2.642944
 C         3.554794         1.386882        -1.416630
 C         2.535079         0.562120        -0.484136
 O         1.707978         1.007115         0.544709
 H         0.127658        -1.273049        -1.373236
 H         0.727785        -1.284002         0.464581
 H        -0.888277        -0.381262        -0.101892
 H        -0.510643         1.312429        -1.903207
 H         0.414565         2.706786        -0.980212
 H         0.782084         1.771585        -3.713061
 H         3.306927         1.424018        -3.462646
 H         4.348388         0.750164        -1.895113
 H         3.977372         2.246293        -0.837536
 H         2.828451        -0.389169        -0.263934
