19
Iteration:  3717charge 0 multiplicity 1
 C         0.221671        -0.605867        -0.206605
 C         1.079282         0.551768        -0.661422
 C         0.427040         1.418832        -1.701270
 C         1.249950         1.991826        -2.770740
 O         2.172744         3.264507        -2.712027
 C         2.803671         1.958904        -2.672574
 C         3.510304         1.180244        -1.453453
 C         2.536697         0.448426        -0.499492
 O         1.645692         1.184651         0.450038
 H        -0.222171        -1.257938        -0.933616
 H         0.736859        -1.276862         0.596295
 H        -0.636867        -0.101681         0.372819
 H        -0.128632         0.832484        -2.343718
 H        -0.186234         2.310918        -1.241074
 H         0.826703         1.792732        -3.713951
 H         3.401728         1.724450        -3.570124
 H         4.002112         0.287260        -1.881613
 H         4.310007         1.754282        -0.906249
 H         2.891776        -0.425851         0.004998
