19
Iteration:  2260
 C         0.130971        -0.518005        -0.037978
 C         1.008655         0.580534        -0.710523
 C         0.379235         1.237974        -1.918463
 C         1.387590         1.987657        -2.755853
 O         2.064231         3.116908        -2.290061
 C         2.889521         1.942986        -2.600565
 C         3.495481         1.146304        -1.549278
 C         2.497832         0.476856        -0.606030
 O         1.812976         1.350973         0.223270
 H        -0.571790        -1.275592        -0.603747
 H         0.771915        -0.920343         0.666291
 H        -0.608548         0.204066         0.453053
 H        -0.210970         0.492640        -2.553030
 H        -0.397952         1.860901        -1.646172
 H         1.188401         2.012149        -3.910870
 H         3.410001         2.118123        -3.572038
 H         4.217916         0.392857        -1.899419
 H         4.015780         1.918475        -0.985444
 H         2.716303        -0.390301        -0.123576
