19
Iteration:  2678
 C         0.243383        -0.582482        -0.059962
 C         0.987896         0.543982        -0.707793
 C         0.387715         1.272891        -1.824160
 C         1.393796         1.951814        -2.774984
 O         2.055259         3.122237        -2.298242
 C         2.906617         2.004022        -2.643627
 C         3.476514         1.074091        -1.603301
 C         2.492348         0.543353        -0.576357
 O         1.708719         1.429695         0.220886
 H        -0.414628        -0.999699        -0.730594
 H         0.868701        -1.341476         0.532994
 H        -0.412387        -0.049393         0.598966
 H        -0.018923         0.411052        -2.375705
 H        -0.368797         1.935197        -1.445357
 H         0.895669         2.050525        -3.818605
 H         3.532345         2.186546        -3.553207
 H         3.900218         0.179538        -2.181222
 H         4.295552         1.449563        -1.052250
 H         2.871127        -0.187367         0.154704
