19
Iteration:   491
 C         0.046315        -0.334966         0.024766
 C         1.114495         0.547411        -0.668694
 C         0.376813         1.465585        -1.686888
 C         1.190251         2.277772        -2.621754
 O         2.174978         3.193274        -2.114873
 C         2.653039         2.040092        -2.815754
 C         3.338653         1.027956        -1.876510
 C         2.502864         0.213806        -0.878817
 O         2.188979         0.950939         0.336107
 H        -0.774816         0.199549         0.252600
 H        -0.239017        -1.118176        -0.622985
 H         0.492146        -0.876544         0.934156
 H        -0.351688         0.810124        -2.189797
 H        -0.398090         2.099105        -1.221940
 H         0.676487         2.799043        -3.417075
 H         3.239958         2.237567        -3.702323
 H         3.878782         0.181937        -2.407524
 H         4.196953         1.499770        -1.394873
 H         2.838682        -0.849722        -0.866554
