19
Iteration:  3345
 C         0.170006        -0.583601        -0.348368
 C         1.038558         0.582077        -0.601505
 C         0.438194         1.658288        -1.552429
 C         1.299644         1.949021        -2.819935
 O         2.213353         3.053389        -2.971134
 C         2.795448         1.790217        -2.647913
 C         3.332509         1.565098        -1.305592
 C         2.513705         0.489034        -0.591570
 O         1.828031         0.898377         0.660177
 H        -0.067816        -1.002956        -1.289669
 H         0.534630        -1.361561         0.198118
 H        -0.746671        -0.215844         0.100811
 H        -0.511299         1.148729        -2.033084
 H         0.022694         2.504828        -1.116861
 H         0.933412         1.826777        -3.823455
 H         3.368197         1.307566        -3.450164
 H         4.381891         1.294601        -1.335012
 H         3.303698         2.534878        -0.806589
 H         3.104059        -0.531520        -0.453726
