19
Iteration:  1102charge 0 multiplicity 1
 C         0.175874        -0.459042        -0.241121
 C         1.085427         0.564860        -0.601100
 C         0.387180         1.543438        -1.617616
 C         1.244887         2.217289        -2.580354
 O         2.151525         3.152077        -2.167508
 C         2.625249         1.885052        -2.816017
 C         3.332051         0.969720        -1.902470
 C         2.556473         0.309939        -0.692775
 O         2.045032         1.193080         0.381525
 H         0.579185        -1.021367         0.538017
 H        -0.789556        -0.066298        -0.136618
 H         0.150408        -1.229923        -1.146325
 H        -0.397313         0.861119        -2.147370
 H        -0.021962         2.413686        -0.972317
 H         0.646392         2.443427        -3.528783
 H         2.974189         1.986428        -3.773010
 H         3.614748         0.099638        -2.423847
 H         4.267407         1.300497        -1.522205
 H         2.992072        -0.534750        -0.269612
