19
Iteration:  1191charge 0 multiplicity 1
 C         0.144671        -0.380667         0.060778
 C         1.017892         0.578770        -0.683711
 C         0.353264         1.373486        -1.779433
 C         1.298887         2.163620        -2.675135
 O         2.051363         3.181862        -1.932752
 C         2.752549         2.072680        -2.657902
 C         3.384439         0.800396        -1.946210
 C         2.517805         0.312428        -0.834667
 O         2.107388         1.228415         0.147015
 H         0.303202        -1.461142        -0.097154
 H         0.322220        -0.178382         1.135839
 H        -1.011579        -0.264596        -0.187076
 H        -0.077392         0.559037        -2.483000
 H        -0.417437         2.152786        -1.448671
 H         0.731450         2.631072        -3.539964
 H         3.284025         2.456689        -3.462751
 H         3.593909         0.136652        -2.739145
 H         4.266951         1.080636        -1.410931
 H         2.877169        -0.576717        -0.380612
