19
Iteration:  2193charge 0 multiplicity 1
 C         0.188568        -0.636444        -0.081370
 C         1.001285         0.628752        -0.627274
 C         0.422288         1.355868        -1.785181
 C         1.323077         2.057505        -2.799890
 O         2.186812         3.177044        -2.530290
 C         2.856135         1.994090        -2.658919
 C         3.437361         1.148182        -1.549470
 C         2.514316         0.454380        -0.538216
 O         1.699886         1.266528         0.351097
 H         0.108797        -1.686406        -0.608247
 H         0.867374        -0.856470         0.829776
 H        -0.923351        -0.390159         0.090471
 H        -0.100387         0.486305        -2.349801
 H        -0.411459         1.955687        -1.499969
 H         0.865958         2.102387        -3.875569
 H         3.487103         1.957222        -3.577965
 H         3.967124         0.287429        -2.017818
 H         4.210463         1.611294        -0.918978
 H         2.859959        -0.432357        -0.111481
