19
Iteration:  2638charge 0 multiplicity 1
 C         0.265043        -0.466235        -0.031958
 C         1.074046         0.502746        -0.741231
 C         0.420654         1.160396        -1.912977
 C         1.277542         2.134304        -2.750274
 O         2.120325         2.975860        -2.020483
 C         2.829954         1.871450        -2.739824
 C         3.432700         0.993783        -1.640699
 C         2.536558         0.582302        -0.529370
 O         1.663657         1.564986         0.096299
 H        -0.182678        -1.201501        -0.731725
 H         0.906239        -1.096787         0.637559
 H        -0.516060         0.040679         0.580978
 H         0.481749         0.322924        -2.722214
 H        -0.634722         1.453142        -1.753740
 H         0.946054         2.571449        -3.668032
 H         3.333265         2.299563        -3.659429
 H         3.945358         0.140489        -2.049832
 H         4.163734         1.763519        -1.218354
 H         3.005334        -0.138342         0.143841
