19
Iteration:    64
 C         0.138968        -0.654345        -0.152806
 C         1.062930         0.478965        -0.649136
 C         0.371644         1.574357        -1.454404
 C         1.173406         2.291779        -2.564803
 O         2.321226         3.250887        -2.305102
 C         2.655468         1.941867        -2.857133
 C         3.365878         0.946560        -1.891863
 C         2.552544         0.324346        -0.710890
 O         1.941758         1.194075         0.330153
 H         0.452071        -1.122117         0.682979
 H        -0.743616        -0.108760         0.187597
 H        -0.070333        -1.507237        -0.915934
 H        -0.586522         1.250828        -1.947009
 H         0.209736         2.303637        -0.711848
 H         0.667316         2.657405        -3.434306
 H         3.013997         1.958827        -3.955037
 H         3.751168         0.033294        -2.494124
 H         4.303057         1.366626        -1.537378
 H         2.992657        -0.642251        -0.288189
