19
Iteration:   541charge 0 multiplicity 1
 C         0.289122        -0.497995         0.014161
 C         1.008118         0.519304        -0.758828
 C         0.290893         1.521891        -1.651071
 C         1.253094         2.314053        -2.544616
 O         2.272070         3.121278        -1.933756
 C         2.698607         1.995627        -2.712752
 C         3.295906         0.807560        -2.011510
 C         2.460282         0.350335        -0.784522
 O         1.996985         1.232599         0.088070
 H        -0.863528        -0.315923         0.022166
 H         0.484828        -1.556254        -0.401972
 H         0.646675        -0.480299         1.010367
 H        -0.567936         1.016811        -2.149836
 H        -0.359969         2.151550        -1.082376
 H         0.830540         2.856678        -3.405201
 H         3.255273         2.171313        -3.663107
 H         3.394674        -0.041229        -2.635388
 H         4.370191         0.991855        -1.823602
 H         2.998141        -0.436388        -0.332992
