19
Iteration:   384charge 0 multiplicity 1
 C         0.307690        -0.535157        -0.201346
 C         1.057416         0.682918        -0.547820
 C         0.348435         1.539612        -1.625268
 C         1.223208         2.297716        -2.643623
 O         2.300870         3.196673        -2.131189
 C         2.556475         1.886611        -2.822639
 C         3.271351         0.881914        -1.906171
 C         2.456747         0.312759        -0.731816
 O         2.027506         1.170550         0.388314
 H         0.835375        -1.234530         0.623302
 H        -0.680211        -0.264044         0.150567
 H         0.372960        -1.262903        -1.128389
 H        -0.146440         0.690641        -2.271301
 H        -0.416179         2.249861        -1.250684
 H         0.710990         2.715071        -3.483302
 H         2.942251         1.941675        -3.801844
 H         3.447210        -0.020998        -2.534546
 H         4.210628         1.336658        -1.588596
 H         2.860783        -0.667690        -0.457041
