19
Iteration:  1732
 C         0.242410        -0.381547         0.031619
 C         1.027723         0.524276        -0.791772
 C         0.414898         1.195184        -1.982781
 C         1.327128         1.987944        -2.795644
 O         2.013123         3.007161        -2.054847
 C         2.773393         1.918632        -2.586936
 C         3.523065         1.120164        -1.610531
 C         2.506527         0.473071        -0.648812
 O         1.818251         1.428411         0.116057
 H         0.693886        -1.273678         0.370202
 H        -0.139563         0.324195         0.928232
 H        -0.624843        -0.702307        -0.410882
 H         0.048349         0.503661        -2.665702
 H        -0.564185         1.734362        -1.676450
 H         0.969705         2.277950        -3.881881
 H         3.385686         2.187418        -3.635642
 H         4.327404         0.431994        -1.959664
 H         3.924146         1.874114        -0.890809
 H         2.929865        -0.234292         0.072523
