19
Iteration:  1034charge 0 multiplicity 1
 C         0.147796        -0.535421        -0.020156
 C         1.025668         0.521316        -0.664597
 C         0.275189         1.639192        -1.494487
 C         1.205048         2.274315        -2.652252
 O         2.300283         3.197753        -2.346654
 C         2.667151         1.954078        -2.816935
 C         3.375932         1.130993        -1.743214
 C         2.515521         0.208854        -0.899081
 O         2.073996         0.948953         0.313751
 H        -0.160702        -0.063092         0.936370
 H        -0.659537        -0.800162        -0.711854
 H         0.638446        -1.446252         0.336457
 H        -0.570410         1.134638        -2.085017
 H        -0.223153         2.322981        -0.712065
 H         0.573537         2.673405        -3.467372
 H         3.049646         1.920417        -3.829550
 H         4.215457         0.637238        -2.187769
 H         3.794072         1.834250        -1.059270
 H         2.858839        -0.742114        -0.597806
