19
Iteration:  1418
 C         0.159037        -0.480653        -0.087117
 C         1.082633         0.531616        -0.675220
 C         0.390973         1.351069        -1.733638
 C         1.258426         2.118764        -2.713139
 O         2.152840         3.148055        -2.206936
 C         2.716363         1.875735        -2.737987
 C         3.404705         1.040359        -1.683333
 C         2.597325         0.452371        -0.658602
 O         1.863999         1.281899         0.245797
 H         0.587001        -1.314579         0.412567
 H        -0.296622         0.068446         0.659117
 H        -0.627392        -0.755491        -0.909950
 H        -0.300150         0.677369        -2.366844
 H        -0.364746         2.036467        -1.306564
 H         0.742319         2.398635        -3.679741
 H         3.424711         2.158978        -3.658636
 H         3.881729         0.179665        -2.236008
 H         4.295077         1.578298        -1.295124
 H         3.115501        -0.429330        -0.155933
