19
Iteration:  4118
 C         0.150245        -0.607771        -0.312148
 C         1.139022         0.564697        -0.552550
 C         0.502957         1.461100        -1.655495
 C         1.308164         1.941878        -2.893689
 O         2.053658         3.180691        -2.762016
 C         2.831680         1.950985        -2.688983
 C         3.384647         1.255265        -1.397355
 C         2.544928         0.448685        -0.501755
 O         1.778940         1.174971         0.571586
 H        -0.000289        -1.036797        -1.335399
 H         0.460753        -1.431663         0.447551
 H        -0.901042        -0.301167        -0.105868
 H        -0.322514         0.914203        -1.948202
 H        -0.005436         2.467815        -1.169477
 H         0.792183         1.749187        -3.841415
 H         3.413898         1.718788        -3.556462
 H         4.210707         0.630034        -1.883039
 H         3.887856         2.059468        -0.802844
 H         2.840838        -0.488520        -0.122969
