19
Iteration:  2928
 C         0.120581        -0.338153        -0.028823
 C         1.141103         0.466047        -0.748440
 C         0.463183         1.036395        -1.998151
 C         1.297932         2.059339        -2.731810
 O         1.953941         3.156708        -2.016122
 C         2.803954         1.982288        -2.631332
 C         3.485912         1.013991        -1.622241
 C         2.560142         0.453247        -0.538645
 O         1.828858         1.494406         0.055420
 H        -0.056227        -1.263336        -0.616296
 H         0.473781        -0.659424         1.060611
 H        -0.798014         0.241462         0.079931
 H         0.378618         0.173904        -2.821755
 H        -0.679784         1.313475        -1.819518
 H         0.797030         2.291239        -3.614125
 H         3.446818         2.270138        -3.410699
 H         3.833041         0.125427        -2.226204
 H         4.499738         1.424977        -1.185884
 H         3.139377        -0.254800         0.133887
