19
Iteration:  2292charge 0 multiplicity 1
 C         0.278860        -0.586353         0.092776
 C         1.040955         0.511130        -0.628188
 C         0.450508         1.178036        -2.037484
 C         1.393789         2.183382        -2.841954
 O         2.212312         3.218435        -2.257249
 C         2.834373         1.992768        -2.654472
 C         3.374337         0.987962        -1.698109
 C         2.507443         0.430475        -0.519206
 O         1.541451         1.448175         0.259732
 H         0.049826        -1.614198        -0.430226
 H         0.759579        -0.888590         0.987391
 H        -0.614532        -0.064784         0.588864
 H        -0.002057         0.357333        -2.729077
 H        -0.292919         1.771069        -1.644881
 H         1.022430         2.297121        -3.965325
 H         3.560371         2.028111        -3.505690
 H         3.762113         0.076222        -2.208535
 H         4.290913         1.393312        -1.297967
 H         2.870672        -0.227421         0.217194
