19
Iteration:  1088
 C         0.152768        -0.541736        -0.185536
 C         1.141566         0.619947        -0.647419
 C         0.446582         1.590818        -1.527096
 C         1.184503         2.148994        -2.738311
 O         2.152483         3.206954        -2.232501
 C         2.635107         1.964021        -2.692547
 C         3.343972         0.908071        -1.831605
 C         2.577932         0.368156        -0.735580
 O         2.005942         1.107002         0.350678
 H         0.300340        -0.826970         0.903906
 H        -0.932979        -0.235026        -0.273927
 H         0.262466        -1.433612        -0.861410
 H        -0.464048         1.220731        -1.852523
 H         0.048997         2.398362        -0.887550
 H         0.635681         2.506259        -3.648762
 H         3.209849         2.043349        -3.697552
 H         3.462307         0.115911        -2.576061
 H         4.324373         1.305845        -1.612118
 H         2.876713        -0.669015        -0.467222
