19
Iteration:  2169charge 0 multiplicity 1
 C         0.346848        -0.707803        -0.019800
 C         0.908240         0.552628        -0.631993
 C         0.379328         1.326559        -1.830591
 C         1.407386         2.116288        -2.763507
 O         2.275375         3.219033        -2.427929
 C         2.792524         1.837861        -2.731327
 C         3.399445         1.117970        -1.559768
 C         2.388101         0.516991        -0.569280
 O         1.687441         1.391795         0.301483
 H         0.438176        -1.573111        -0.726166
 H         0.958302        -1.100291         0.961571
 H        -0.730426        -0.618821        -0.074452
 H        -0.292203         0.740589        -2.504784
 H        -0.255332         2.086404        -1.413603
 H         0.976083         2.258461        -3.771426
 H         3.277811         1.808294        -3.673440
 H         4.098740         0.289458        -1.790558
 H         3.978396         1.834571        -0.950091
 H         2.717531        -0.463755        -0.148076
