19
Iteration:   594charge 0 multiplicity 1
 C         0.166271        -0.554982        -0.089810
 C         1.080547         0.568146        -0.664212
 C         0.359878         1.390755        -1.687509
 C         1.209931         2.278840        -2.472167
 O         2.356239         3.135394        -1.978984
 C         2.649079         1.989276        -2.733629
 C         3.252780         0.866255        -2.039186
 C         2.539495         0.412396        -0.755476
 O         1.995066         1.309653         0.186909
 H        -0.633189         0.034051         0.460830
 H        -0.241841        -1.226550        -0.840618
 H         0.576155        -1.076196         0.676285
 H        -0.052708         0.592491        -2.455814
 H        -0.393416         2.048775        -1.174910
 H         0.764779         2.708476        -3.359920
 H         2.968320         2.061777        -3.729115
 H         3.055170        -0.041628        -2.671326
 H         4.337917         1.013382        -1.969273
 H         2.955391        -0.487613        -0.334275
