19
Iteration:  2818charge 0 multiplicity 1
 C         0.315110        -0.794300        -0.294071
 C         0.983430         0.585755        -0.621563
 C         0.403365         1.467690        -1.686880
 C         1.327685         1.987859        -2.777703
 O         2.243842         3.100912        -2.498922
 C         2.749299         1.807403        -2.759138
 C         3.379515         1.174495        -1.576091
 C         2.543757         0.731495        -0.497858
 O         1.676484         1.328266         0.468643
 H        -0.083589        -1.203778        -1.206049
 H         0.914755        -1.474242         0.373238
 H        -0.627377        -0.632969         0.204323
 H        -0.362736         0.898043        -2.196957
 H        -0.078964         2.375338        -1.173691
 H         0.822587         2.152262        -3.660737
 H         3.288890         1.647415        -3.619761
 H         3.920212         0.269683        -1.877515
 H         4.134281         1.872121        -1.241211
 H         2.956716        -0.140733         0.056300
