19
Iteration:   162charge 0 multiplicity 1
 C         0.029724        -0.502522        -0.098867
 C         1.110325         0.415384        -0.652770
 C         0.452809         1.549240        -1.474325
 C         1.202763         2.204125        -2.637716
 O         2.143499         3.202345        -2.279959
 C         2.745820         2.038108        -2.725237
 C         3.386788         1.004306        -1.863411
 C         2.568570         0.313107        -0.770234
 O         1.991471         1.092623         0.276339
 H         0.372009        -1.241900         0.524636
 H        -0.655070         0.163478         0.511467
 H        -0.706603        -0.857016        -0.970702
 H        -0.517685         1.185074        -1.948894
 H         0.264353         2.398232        -0.837805
 H         0.759446         2.388216        -3.575040
 H         3.274510         2.193149        -3.669697
 H         3.562826         0.249587        -2.723871
 H         4.409577         1.211852        -1.613580
 H         3.161425        -0.528251        -0.351448
