19
Iteration:  1763
 C         0.124552        -0.468751         0.053978
 C         1.034475         0.505884        -0.618328
 C         0.503413         1.041136        -1.960054
 C         1.376887         2.019669        -2.795688
 O         2.056661         3.160745        -2.191329
 C         2.829587         2.073691        -2.645033
 C         3.444955         1.039709        -1.714536
 C         2.529253         0.503402        -0.572401
 O         1.762172         1.447970         0.225059
 H         0.371312        -1.478840        -0.232152
 H        -0.043920        -0.156142         1.154141
 H        -0.846072        -0.356871        -0.390120
 H         0.330202         0.212249        -2.624192
 H        -0.454220         1.475474        -1.828521
 H         0.881103         2.286037        -3.853771
 H         3.404682         2.327857        -3.651938
 H         3.773416         0.214737        -2.376433
 H         4.346011         1.421363        -1.212691
 H         3.053636        -0.105328         0.119445
