19
Iteration:    91
 C         0.158984        -0.650701         0.008244
 C         0.994502         0.509735        -0.643456
 C         0.370871         1.608336        -1.521398
 C         1.285516         2.342388        -2.528918
 O         2.384876         3.281266        -2.406811
 C         2.643180         1.952874        -2.886216
 C         3.331314         1.096466        -1.824653
 C         2.461968         0.256786        -0.811023
 O         1.928967         0.982357         0.331248
 H         0.971483        -1.176052         0.712093
 H        -0.629662        -0.264813         0.683574
 H        -0.348031        -1.322253        -0.621629
 H        -0.265835         1.109075        -2.221696
 H        -0.289482         2.297028        -0.893987
 H         0.708470         2.549098        -3.476612
 H         2.990116         1.745974        -3.892858
 H         4.094312         0.471161        -2.193307
 H         3.902395         1.806463        -1.172344
 H         2.936255        -0.677424        -0.616596
