19
Iteration:  4508charge 0 multiplicity 1
 C         0.216748        -0.695799        -0.231243
 C         1.024224         0.505186        -0.610536
 C         0.452529         1.605527        -1.584004
 C         1.335099         2.020191        -2.812670
 O         2.209820         3.176901        -2.788457
 C         2.812782         1.884615        -2.771394
 C         3.418355         1.377691        -1.433342
 C         2.476970         0.444279        -0.532695
 O         1.686142         1.058570         0.517080
 H         0.696542        -1.675885        -0.507645
 H         0.196493        -0.720373         0.919235
 H        -0.719639        -0.541462        -0.610781
 H        -0.476841         1.237922        -2.030577
 H         0.084568         2.607626        -1.114237
 H         0.887286         1.934000        -3.816389
 H         3.273180         1.477197        -3.616718
 H         4.318735         0.748879        -1.707663
 H         3.708518         2.121726        -0.686620
 H         2.891037        -0.512023        -0.172745
