19
Iteration:  3347charge 0 multiplicity 1
 C         0.176320        -0.567677        -0.348967
 C         1.063140         0.568485        -0.584464
 C         0.429486         1.652434        -1.564010
 C         1.279353         1.933550        -2.839400
 O         2.224456         3.066244        -2.955285
 C         2.796805         1.797404        -2.657909
 C         3.308599         1.559001        -1.303347
 C         2.518841         0.467273        -0.592489
 O         1.823369         0.903479         0.655569
 H        -0.043341        -0.979606        -1.295370
 H         0.534370        -1.315364         0.251443
 H        -0.779881        -0.208517         0.096046
 H        -0.451947         1.240431        -2.018788
 H         0.036880         2.525257        -1.057238
 H         0.982875         1.782889        -3.873086
 H         3.342447         1.293750        -3.449168
 H         4.421328         1.376768        -1.347828
 H         3.274188         2.502092        -0.777289
 H         3.088555        -0.524563        -0.439447
