19
Iteration:  4186charge 0 multiplicity 1
 C         0.261542        -0.684128        -0.155364
 C         1.029383         0.493875        -0.633897
 C         0.461840         1.546328        -1.720109
 C         1.384850         1.985600        -2.830524
 O         2.108366         3.209477        -2.691750
 C         2.836614         1.912926        -2.681982
 C         3.380203         1.210563        -1.438112
 C         2.489743         0.436033        -0.517265
 O         1.674011         1.221612         0.431661
 H         0.018400        -1.279632        -1.010327
 H         0.889395        -1.023074         0.665821
 H        -0.825844        -0.307408         0.190118
 H        -0.360866         1.012031        -2.213264
 H        -0.029066         2.338707        -1.014353
 H         1.165743         1.822698        -3.866640
 H         3.478093         1.836900        -3.596452
 H         4.259787         0.589321        -1.753645
 H         3.965149         1.964898        -0.805271
 H         2.821481        -0.516237        -0.103004
