19
Iteration:  2588
 C         0.130988        -0.455450         0.119271
 C         1.052159         0.489360        -0.680502
 C         0.552455         1.125968        -1.978692
 C         1.398654         2.081266        -2.838391
 O         1.934917         3.146159        -2.240726
 C         2.896499         2.085321        -2.601623
 C         3.428222         0.999853        -1.647535
 C         2.510109         0.422515        -0.609399
 O         1.783327         1.413293         0.227459
 H         0.078858        -1.567039        -0.244752
 H         0.370773        -0.319306         1.116420
 H        -0.902351        -0.135017        -0.173372
 H         0.048195         0.410845        -2.641881
 H        -0.201660         1.857468        -1.534519
 H         0.911955         2.482297        -3.817116
 H         3.509351         2.451176        -3.391590
 H         3.719651         0.186513        -2.406917
 H         4.418513         1.263525        -1.285424
 H         2.958538        -0.414214         0.047885
