19
Iteration:   731
 C         0.241287        -0.656500        -0.256939
 C         1.065553         0.588562        -0.632781
 C         0.361555         1.697065        -1.437851
 C         1.182742         2.282052        -2.597213
 O         2.335624         3.145372        -2.148352
 C         2.560055         1.831271        -2.834640
 C         3.346623         0.920712        -1.920239
 C         2.473612         0.341678        -0.807835
 O         2.000457         1.189543         0.364165
 H        -0.678869        -0.364933         0.044771
 H         0.204017        -1.305775        -1.081097
 H         0.662815        -1.298602         0.579633
 H        -0.664208         1.389778        -1.931993
 H         0.002724         2.486281        -0.776297
 H         0.561604         2.786928        -3.389954
 H         2.938930         1.980357        -3.946868
 H         3.816166         0.141145        -2.501511
 H         4.141753         1.572726        -1.518753
 H         2.909738        -0.658073        -0.458996
