19
Iteration:  3183charge 0 multiplicity 1
 C         0.080043        -0.695576        -0.380005
 C         1.027292         0.489946        -0.579309
 C         0.529422         1.678361        -1.442712
 C         1.336592         1.869552        -2.781925
 O         2.111550         3.085906        -2.938307
 C         2.843972         1.844078        -2.724347
 C         3.451070         1.530986        -1.335663
 C         2.530998         0.509656        -0.551661
 O         1.738750         1.017550         0.553496
 H         0.024233        -1.319219        -1.304295
 H         0.335441        -1.307560         0.448690
 H        -0.970811        -0.163762        -0.124175
 H        -0.414405         1.477256        -1.905271
 H         0.368550         2.622786        -0.926484
 H         0.778577         1.660429        -3.723090
 H         3.359122         1.726774        -3.700272
 H         4.493296         1.058885        -1.547359
 H         3.745493         2.365877        -0.702163
 H         3.118286        -0.364938        -0.207170
