19
Iteration:  2051
 C         0.108852        -0.371918         0.161644
 C         0.985065         0.389979        -0.761120
 C         0.444074         1.048375        -2.029260
 C         1.373321         2.016167        -2.816760
 O         2.063387         3.085571        -2.055551
 C         2.862121         1.986678        -2.660243
 C         3.530757         1.151220        -1.545780
 C         2.474306         0.478007        -0.664191
 O         1.795474         1.458970         0.047276
 H        -0.352394        -1.240447        -0.367317
 H         0.683745        -0.887864         0.852971
 H        -0.691947         0.316195         0.526299
 H        -0.129397         0.277369        -2.715522
 H        -0.332170         1.690587        -1.572059
 H         0.805719         2.417500        -3.784656
 H         3.639417         2.375949        -3.425915
 H         4.256793         0.529704        -2.084719
 H         4.104199         1.806674        -0.882519
 H         2.966868        -0.233056        -0.017612
