19
Iteration:  2134
 C         0.286763        -0.542543        -0.227931
 C         1.129365         0.554467        -0.731082
 C         0.377598         1.307426        -1.796386
 C         1.288632         1.994868        -2.754117
 O         2.096660         3.010171        -2.215138
 C         2.824988         1.838795        -2.699750
 C         3.496048         1.067793        -1.606669
 C         2.524438         0.642799        -0.507103
 O         1.653518         1.461082         0.254741
 H         0.189946        -1.281788        -0.972118
 H         0.397456        -0.965324         0.831010
 H        -0.642589        -0.052975        -0.086622
 H        -0.352948         0.739907        -2.266736
 H        -0.141830         2.111500        -1.239072
 H         0.917068         2.114471        -3.720123
 H         3.356564         1.969298        -3.621985
 H         3.991031         0.174495        -2.017850
 H         4.281466         1.701134        -1.131036
 H         2.900350        -0.262110         0.080815
