19
Iteration:   216
 C         0.293278        -0.603156        -0.064308
 C         0.953304         0.651537        -0.647090
 C         0.281523         1.534591        -1.648182
 C         1.258419         2.295744        -2.520512
 O         2.378756         3.089405        -1.999615
 C         2.585784         1.918193        -2.831519
 C         3.319158         0.886525        -1.924869
 C         2.411000         0.384330        -0.818156
 O         2.033883         1.268702         0.179021
 H         0.796019        -0.823182         0.832195
 H        -0.845928        -0.592602         0.156960
 H         0.601815        -1.530037        -0.808683
 H        -0.385390         0.809235        -2.256258
 H        -0.437464         2.272595        -1.218642
 H         0.833419         2.765196        -3.392382
 H         2.997845         1.941336        -3.826912
 H         3.822732        -0.009203        -2.381138
 H         4.082584         1.426109        -1.380978
 H         2.750537        -0.647577        -0.518911
