19
Iteration:  3051charge 0 multiplicity 1
 C         0.129916        -0.521472        -0.265410
 C         1.038567         0.598324        -0.645151
 C         0.430389         1.456260        -1.744150
 C         1.351526         1.862747        -2.830513
 O         2.061982         2.999098        -2.466975
 C         2.813993         1.848732        -2.781125
 C         3.484680         1.384124        -1.460810
 C         2.515950         0.486518        -0.596397
 O         1.822523         1.190762         0.515138
 H         0.306745        -1.170835        -1.104002
 H         0.458310        -0.921652         0.676276
 H        -1.046451        -0.445395        -0.270798
 H        -0.522072         0.960883        -2.111683
 H         0.174573         2.536122        -1.311221
 H         0.724637         2.067664        -3.733678
 H         3.525112         2.095767        -3.660222
 H         4.394465         0.713235        -1.694125
 H         3.702453         2.307071        -0.866019
 H         2.986557        -0.425973        -0.197946
