19
Iteration:  1806
 C         0.249013        -0.555855        -0.050176
 C         1.095674         0.555110        -0.654619
 C         0.364977         1.205923        -1.983308
 C         1.313643         1.974074        -2.881312
 O         2.105878         3.109040        -2.189615
 C         2.796796         1.971532        -2.624896
 C         3.444021         0.993988        -1.655672
 C         2.559354         0.555359        -0.460026
 O         1.717228         1.536243         0.236075
 H        -0.094562        -1.153491        -0.874054
 H         0.851498        -1.116985         0.744773
 H        -0.672215        -0.350158         0.471660
 H        -0.031852         0.332122        -2.615400
 H        -0.529372         1.706474        -1.733322
 H         0.890425         2.333609        -3.900678
 H         3.556784         2.162306        -3.395315
 H         3.841450         0.107329        -2.142337
 H         4.223752         1.586275        -1.170876
 H         2.946488        -0.173328         0.207724
