19
Iteration:  2274charge 0 multiplicity 1
 C         0.224868        -0.484963         0.089807
 C         0.996767         0.477586        -0.767490
 C         0.458158         1.248833        -1.943955
 C         1.387358         2.047952        -2.855434
 O         2.141533         3.187218        -2.298473
 C         2.829473         1.983090        -2.662050
 C         3.428177         1.078684        -1.505625
 C         2.454429         0.432059        -0.579456
 O         1.688855         1.367303         0.238251
 H        -0.144839        -1.266987        -0.569137
 H         0.899945        -0.970264         0.799661
 H        -0.624788        -0.093582         0.673296
 H         0.152466         0.468565        -2.628788
 H        -0.458700         1.858282        -1.674183
 H         0.902223         2.319986        -3.751279
 H         3.552933         2.109320        -3.480814
 H         3.908364         0.295071        -2.102454
 H         4.236339         1.560701        -0.916320
 H         2.970091        -0.396571        -0.086875
