19
Iteration:  3720
 C         0.211559        -0.614107        -0.212052
 C         1.093996         0.556623        -0.643871
 C         0.404583         1.411972        -1.686047
 C         1.272515         2.007228        -2.767075
 O         2.170520         3.267714        -2.726281
 C         2.786183         1.953691        -2.670489
 C         3.538174         1.168488        -1.450820
 C         2.543529         0.441160        -0.488543
 O         1.640945         1.192305         0.443399
 H        -0.254275        -1.259297        -1.010014
 H         0.766121        -1.303563         0.525597
 H        -0.634558        -0.164253         0.365499
 H        -0.278332         0.812489        -2.379389
 H        -0.232927         2.352538        -1.211377
 H         0.824821         1.883717        -3.782104
 H         3.402808         1.647628        -3.540109
 H         4.091575         0.295504        -1.847347
 H         4.281541         1.807165        -0.998345
 H         2.877927        -0.377234         0.037003
