19
Iteration:  2576
 C         0.132775        -0.382132         0.015906
 C         1.089340         0.468413        -0.723233
 C         0.462624         1.209430        -1.952552
 C         1.406243         1.928929        -2.884425
 O         1.928873         3.195912        -2.166675
 C         2.804957         2.063915        -2.607604
 C         3.504633         1.028885        -1.644481
 C         2.541126         0.424558        -0.548138
 O         1.818492         1.360810         0.218955
 H         0.328622        -1.536011        -0.153178
 H         0.195715        -0.217941         1.047411
 H        -0.914603        -0.039733        -0.206036
 H        -0.230783         0.570857        -2.451592
 H        -0.217706         2.049288        -1.569535
 H         0.988808         2.102994        -3.936957
 H         3.426889         2.200899        -3.485624
 H         3.852553         0.187006        -2.321090
 H         4.346289         1.479004        -1.066799
 H         3.000133        -0.455340         0.054522
