19
Iteration:  4299
 C         0.141086        -0.508265         0.096946
 C         1.012745         0.504701        -0.654580
 C         0.458998         1.112406        -2.014035
 C         1.447196         2.080055        -2.823597
 O         2.060233         3.181567        -2.148056
 C         2.893581         2.123794        -2.607216
 C         3.362119         1.005653        -1.701752
 C         2.495603         0.448734        -0.609750
 O         1.765338         1.407677         0.183495
 H         0.211330        -1.578539        -0.164681
 H         0.490568        -0.478630         1.151896
 H        -0.978156        -0.261052         0.113213
 H         0.314688         0.243674        -2.807048
 H        -0.439267         1.645856        -1.880646
 H         0.901624         2.442229        -3.684228
 H         3.642679         2.342600        -3.409118
 H         3.682341         0.137390        -2.288510
 H         4.252960         1.377088        -1.247048
 H         3.009261        -0.344660         0.030658
