19
Iteration:  1792
 C         0.228868        -0.516842        -0.002377
 C         1.087943         0.526939        -0.644417
 C         0.498073         1.111162        -1.987338
 C         1.355229         2.097733        -2.846989
 O         2.027888         3.160847        -2.251840
 C         2.816626         2.001480        -2.662607
 C         3.405913         0.978214        -1.624249
 C         2.560148         0.553973        -0.440309
 O         1.691540         1.456366         0.249325
 H         0.190634        -1.391930        -0.747000
 H         0.573630        -0.938018         0.897727
 H        -0.747403         0.091302         0.076851
 H         0.153076         0.215801        -2.666894
 H        -0.390927         1.731808        -1.650180
 H         0.974593         2.310192        -3.773998
 H         3.336202         2.183104        -3.507876
 H         3.397925         0.081459        -2.293687
 H         4.481694         1.085758        -1.447890
 H         3.117659        -0.115688         0.270389
