19
Iteration:  3573charge 0 multiplicity 1
 C         0.193514        -0.451712         0.037377
 C         1.060967         0.507854        -0.762242
 C         0.488451         1.105175        -2.038596
 C         1.336763         2.116579        -2.763821
 O         2.002449         3.064014        -1.965352
 C         2.795428         1.886557        -2.679873
 C         3.449045         0.960476        -1.654623
 C         2.548874         0.507202        -0.485141
 O         1.750192         1.563114         0.027636
 H        -0.188090        -1.287470        -0.686360
 H         0.676891        -0.951987         0.857626
 H        -0.634405         0.215984         0.470336
 H         0.335971         0.454298        -2.888995
 H        -0.332355         1.764353        -1.711863
 H         1.032761         2.483395        -3.712918
 H         3.429259         2.388575        -3.399493
 H         3.964958         0.189614        -2.229106
 H         4.242506         1.464611        -1.028753
 H         2.982807        -0.188763         0.110352
