19
Iteration:  2200charge 0 multiplicity 1
 C         0.174711        -0.586438        -0.089137
 C         1.004635         0.557705        -0.654742
 C         0.421019         1.333690        -1.825077
 C         1.370692         2.033146        -2.839634
 O         2.116706         3.209263        -2.493115
 C         2.797724         1.944872        -2.675885
 C         3.503720         1.134223        -1.510785
 C         2.505333         0.505280        -0.510418
 O         1.739687         1.245846         0.375051
 H         0.088528        -1.372962        -0.775713
 H         0.477305        -0.950027         0.951854
 H        -0.784801        -0.191802         0.127364
 H        -0.119852         0.628275        -2.398864
 H        -0.289066         2.088865        -1.388097
 H         0.995612         2.080771        -3.828418
 H         3.373378         1.959714        -3.576470
 H         3.992680         0.306909        -2.050743
 H         4.341814         1.762745        -1.136687
 H         2.922335        -0.509116        -0.155309
