19
Iteration:  3555charge 0 multiplicity 1
 C         0.070758        -0.416107        -0.026349
 C         1.068559         0.472972        -0.781363
 C         0.404174         1.138565        -1.922896
 C         1.322969         2.008101        -2.800428
 O         2.064907         3.050856        -2.087667
 C         2.828066         1.987847        -2.589457
 C         3.522263         1.113316        -1.582622
 C         2.579330         0.489237        -0.608740
 O         1.802358         1.467188         0.095538
 H        -0.194806        -1.257872        -0.623483
 H         0.533955        -0.834522         0.918371
 H        -0.782408         0.240750         0.268927
 H        -0.123937         0.264319        -2.489982
 H        -0.418447         1.712398        -1.463085
 H         0.832662         2.337086        -3.757723
 H         3.368047         2.099891        -3.558167
 H         4.111771         0.309298        -2.062871
 H         4.210406         1.802619        -1.105619
 H         3.070223        -0.337825         0.100357
