19
Iteration:  1405
 C         0.188312        -0.519675         0.013903
 C         1.027398         0.529576        -0.722158
 C         0.373556         1.440147        -1.713323
 C         1.303625         2.081871        -2.738976
 O         2.131358         3.121087        -2.246854
 C         2.813048         1.982387        -2.724989
 C         3.443147         1.066204        -1.707075
 C         2.452149         0.368627        -0.693321
 O         1.901007         1.287344         0.242889
 H         0.883988        -1.207110         0.482272
 H        -0.667158        -0.064348         0.617154
 H        -0.408300        -1.280527        -0.628095
 H        -0.331991         0.743584        -2.331358
 H        -0.182330         2.175690        -1.176877
 H         0.808474         2.353274        -3.651569
 H         3.398477         2.133572        -3.713222
 H         4.057802         0.314175        -2.172486
 H         4.009797         1.730279        -1.043644
 H         2.740233        -0.671982        -0.276392
