19
Iteration:    48charge 0 multiplicity 1
 C         0.226071        -0.476819        -0.274303
 C         1.122673         0.622664        -0.639408
 C         0.335527         1.643496        -1.494442
 C         1.215197         2.182674        -2.614647
 O         2.181267         3.122235        -2.164572
 C         2.620023         1.910630        -2.757870
 C         3.349163         0.846027        -1.943863
 C         2.560112         0.350546        -0.716744
 O         2.003446         1.179744         0.347580
 H         0.723849        -1.063383         0.662147
 H        -0.859481        -0.282331        -0.155879
 H         0.203425        -1.104278        -1.137068
 H        -0.532529         1.113742        -1.888952
 H        -0.130315         2.471131        -0.820851
 H         0.581568         2.455632        -3.499007
 H         3.097634         2.015835        -3.707095
 H         3.599656         0.026330        -2.578935
 H         4.317596         1.296841        -1.562702
 H         2.944478        -0.563193        -0.322773
