19
Iteration:  3041
 C         0.138621        -0.536431        -0.234220
 C         1.089010         0.615333        -0.612371
 C         0.375739         1.382540        -1.717840
 C         1.322192         1.860547        -2.810798
 O         2.086469         3.045529        -2.422176
 C         2.866403         1.890470        -2.754130
 C         3.484421         1.315217        -1.508642
 C         2.576452         0.516676        -0.616017
 O         1.734125         1.217162         0.439066
 H         0.193933        -1.350246        -0.960329
 H         0.253626        -1.041972         0.683158
 H        -0.905704         0.010686        -0.252030
 H        -0.536941         0.878890        -2.149151
 H        -0.092163         2.436856        -1.248337
 H         0.919478         2.016429        -3.877456
 H         3.501956         1.900503        -3.752176
 H         4.536477         0.850240        -1.719645
 H         3.872028         2.169309        -0.955674
 H         2.929713        -0.465236        -0.373993
