19
Iteration:  1457charge 0 multiplicity 1
 C         0.148046        -0.516690        -0.085453
 C         1.071571         0.573632        -0.567104
 C         0.456976         1.202306        -1.868705
 C         1.321587         2.178021        -2.709501
 O         2.155295         3.116317        -2.096736
 C         2.752479         1.971562        -2.782636
 C         3.320772         0.961625        -1.788775
 C         2.513413         0.503223        -0.661636
 O         1.875545         1.404703         0.259783
 H         0.486996        -1.595826        -0.120291
 H         0.057369        -0.463993         1.132858
 H        -0.768913        -0.340255        -0.577105
 H         0.280870         0.323707        -2.459562
 H        -0.468739         1.707225        -1.510058
 H         0.722944         2.575423        -3.506150
 H         3.306494         2.099466        -3.640471
 H         3.470269        -0.022820        -2.286611
 H         4.324240         1.213388        -1.409229
 H         3.117010        -0.157704        -0.049118
