19
Iteration:  1726
 C         0.277750        -0.333529         0.014041
 C         1.086777         0.551264        -0.811394
 C         0.380886         1.191206        -1.975447
 C         1.321407         1.978208        -2.779985
 O         2.011909         3.013168        -2.056823
 C         2.799446         1.943064        -2.621083
 C         3.485949         1.120721        -1.578989
 C         2.511156         0.437195        -0.663686
 O         1.764951         1.408619         0.110844
 H         0.896919        -1.058559         0.710262
 H        -0.134831         0.119153         0.844141
 H        -0.645161        -0.718990        -0.624068
 H        -0.219351         0.497593        -2.727214
 H        -0.327246         1.799378        -1.394458
 H         1.102782         2.128914        -3.819446
 H         3.308208         2.076889        -3.497065
 H         4.254271         0.412486        -1.880760
 H         4.011447         1.790465        -0.884914
 H         2.994067        -0.305724         0.015170
