19
Iteration:  1524
 C         0.131119        -0.421069         0.033415
 C         1.050362         0.519538        -0.709273
 C         0.362811         1.200460        -1.847180
 C         1.294666         2.051052        -2.782600
 O         2.135827         3.113676        -2.035977
 C         2.771781         2.022005        -2.680089
 C         3.475481         1.040710        -1.726315
 C         2.575959         0.427688        -0.691603
 O         1.840570         1.359771         0.107002
 H        -0.728837        -0.903840        -0.464514
 H         0.819522        -1.381561         0.417685
 H        -0.407638         0.205111         0.817560
 H        -0.185853         0.420228        -2.394495
 H        -0.368721         1.994320        -1.488910
 H         0.814608         2.508448        -3.593327
 H         3.274662         2.177270        -3.574708
 H         4.022210         0.266474        -2.290125
 H         4.170493         1.557448        -1.030276
 H         3.060752        -0.353371        -0.080869
