19
Iteration:  1410
 C         0.166892        -0.508991        -0.042204
 C         1.053776         0.521483        -0.722250
 C         0.368104         1.400998        -1.707213
 C         1.306271         2.099812        -2.722707
 O         2.142308         3.122817        -2.237371
 C         2.768168         1.943128        -2.747204
 C         3.411061         1.053645        -1.690356
 C         2.503529         0.408438        -0.659688
 O         1.890719         1.285483         0.230732
 H         0.771702        -1.214067         0.568985
 H        -0.420998        -0.022964         0.723545
 H        -0.475072        -1.022868        -0.774481
 H        -0.196771         0.678519        -2.235130
 H        -0.278498         2.201279        -1.206356
 H         0.693836         2.356017        -3.652379
 H         3.451763         2.231435        -3.571798
 H         4.035898         0.235320        -2.170474
 H         4.152448         1.692558        -1.130633
 H         2.843420        -0.541615        -0.335344
