19
Iteration:  4168charge 0 multiplicity 1
 C         0.159287        -0.665636        -0.142795
 C         0.974233         0.516429        -0.651830
 C         0.416433         1.508512        -1.659276
 C         1.352179         1.911676        -2.781230
 O         2.190829         3.126055        -2.615959
 C         2.864828         1.864047        -2.697890
 C         3.461455         1.421029        -1.376228
 C         2.452146         0.459501        -0.681760
 O         1.761117         1.183856         0.356454
 H         0.125828        -1.538257        -0.844691
 H         0.662359        -1.021933         0.733046
 H        -0.886020        -0.410017         0.149288
 H        -0.612404         1.121434        -2.116871
 H         0.178238         2.377092        -1.183366
 H         0.822204         1.837378        -3.760154
 H         3.476384         1.764528        -3.645465
 H         4.381148         0.908429        -1.514458
 H         3.591558         2.452803        -0.983079
 H         2.900994        -0.492475        -0.186599
