19
Iteration:  3080
 C         0.249907        -0.625378        -0.268368
 C         1.079147         0.578762        -0.628669
 C         0.371586         1.556300        -1.661253
 C         1.292306         1.943541        -2.794998
 O         2.150437         3.181925        -2.798322
 C         2.783011         1.848065        -2.627271
 C         3.433693         1.308375        -1.393684
 C         2.540903         0.403975        -0.544192
 O         1.732735         1.164106         0.506865
 H         0.199455        -1.257548        -1.191834
 H         0.722001        -1.342341         0.527658
 H        -0.745434        -0.298180        -0.032971
 H        -0.555140         1.126437        -2.059292
 H         0.173839         2.417750        -1.158723
 H         0.825595         1.848417        -3.742912
 H         3.346591         1.730958        -3.508649
 H         4.204817         0.680399        -1.704395
 H         3.763539         2.139611        -0.681957
 H         2.962649        -0.596990        -0.156888
