19
Iteration:   516
 C         0.021767        -0.447501         0.068820
 C         1.115395         0.487164        -0.670619
 C         0.424215         1.496485        -1.581013
 C         1.235497         2.242916        -2.525921
 O         2.236002         3.201147        -2.012629
 C         2.633217         2.019041        -2.733204
 C         3.415728         0.941117        -2.003771
 C         2.509977         0.173796        -0.940228
 O         2.025326         1.208349         0.119969
 H        -0.987052         0.032203        -0.056614
 H        -0.029855        -1.406922        -0.408804
 H         0.243467        -0.650490         1.067963
 H        -0.401556         0.857238        -2.151799
 H        -0.415644         2.064422        -1.126972
 H         0.760932         2.714573        -3.383310
 H         3.060409         2.124850        -3.691826
 H         3.990043         0.204316        -2.629794
 H         4.311464         1.380636        -1.545085
 H         3.067060        -0.680716        -0.543204
