19
Iteration:  4015
 C         0.133467        -0.517659        -0.083406
 C         1.057168         0.501605        -0.602705
 C         0.485121         1.288126        -1.835778
 C         1.379878         1.975843        -2.837356
 O         2.054434         3.233698        -2.401516
 C         2.816103         1.999888        -2.702362
 C         3.447202         1.098945        -1.586378
 C         2.579611         0.503832        -0.567526
 O         1.729224         1.268171         0.382169
 H         0.107184        -1.437238        -0.737559
 H         0.375677        -0.809362         0.879744
 H        -0.831322        -0.032607         0.017814
 H        -0.085769         0.582039        -2.563018
 H        -0.366436         1.971916        -1.542622
 H         0.798454         1.910633        -3.790874
 H         3.469453         2.144612        -3.616931
 H         3.973889         0.326885        -2.173204
 H         4.286331         1.584470        -1.022739
 H         2.986524        -0.323494         0.060121
