19
Iteration:  2214
 C         0.075862        -0.450912        -0.146206
 C         1.149886         0.449047        -0.718705
 C         0.426696         1.350499        -1.871767
 C         1.358513         1.939874        -2.839940
 O         1.995764         3.188069        -2.362577
 C         2.839294         1.846040        -2.680339
 C         3.461094         1.184670        -1.560355
 C         2.584894         0.478065        -0.533576
 O         1.795846         1.314470         0.435404
 H        -0.225588        -1.232919        -0.919267
 H         0.555029        -1.092341         0.678877
 H        -0.880774         0.114345        -0.015999
 H        -0.424857         0.821350        -2.381341
 H        -0.081091         2.156896        -1.425815
 H         0.947045         1.974046        -3.926557
 H         3.461177         1.928784        -3.573636
 H         4.110463         0.348393        -1.923242
 H         4.088179         1.794030        -0.914508
 H         3.065707        -0.270251         0.062249
