19
Iteration:  3909
 C         0.144931        -0.484810        -0.016671
 C         1.111910         0.511617        -0.676660
 C         0.484219         1.093473        -1.932476
 C         1.382241         2.026794        -2.747228
 O         2.076258         3.157095        -2.187093
 C         2.883023         2.088277        -2.667939
 C         3.482445         0.918336        -1.706710
 C         2.553345         0.617267        -0.513360
 O         1.603736         1.423753         0.237639
 H        -0.484414        -1.208806        -0.683751
 H         0.768812        -1.055298         0.691109
 H        -0.612018         0.112902         0.502872
 H         0.218581         0.287699        -2.671631
 H        -0.438542         1.739502        -1.755705
 H         0.839126         2.380324        -3.684638
 H         3.399107         2.176210        -3.603873
 H         3.508448         0.101789        -2.458205
 H         4.483212         1.209847        -1.504343
 H         2.966450        -0.131132         0.112014
