19
Iteration:  3807charge 0 multiplicity 1
 C         0.170343        -0.616542        -0.256255
 C         1.057024         0.510653        -0.591428
 C         0.484295         1.417791        -1.667756
 C         1.323901         1.988664        -2.787265
 O         2.151206         3.231049        -2.732269
 C         2.789478         1.935154        -2.694148
 C         3.365618         1.197522        -1.436388
 C         2.514500         0.422865        -0.505650
 O         1.771528         1.252921         0.486528
 H         0.263988        -1.324463        -1.169579
 H         0.423339        -1.180809         0.689321
 H        -0.902047        -0.278392        -0.138823
 H        -0.278448         0.843438        -2.108419
 H         0.068014         2.312696        -0.986652
 H         1.006121         1.817342        -3.812905
 H         3.253555         1.922504        -3.698891
 H         4.026377         0.448589        -1.915041
 H         3.986437         1.966156        -0.996267
 H         2.963504        -0.390940        -0.054634
