19
Iteration:   413charge 0 multiplicity 1
 C         0.218814        -0.609954        -0.147223
 C         1.003480         0.506433        -0.675436
 C         0.340317         1.630729        -1.496109
 C         1.197517         2.319494        -2.516347
 O         2.306353         3.117678        -2.196842
 C         2.619398         1.863641        -2.879280
 C         3.397416         1.001342        -1.895226
 C         2.554494         0.356582        -0.746008
 O         1.942789         1.181832         0.269857
 H         0.350666        -0.625868         0.833338
 H        -0.834408        -0.465900        -0.338471
 H         0.556134        -1.580747        -0.546092
 H        -0.504541         1.171937        -1.990183
 H        -0.031611         2.339649        -0.724790
 H         0.711819         2.766134        -3.399407
 H         2.949289         1.933100        -3.940443
 H         3.587136         0.061600        -2.444335
 H         4.281780         1.468882        -1.452361
 H         3.016725        -0.532773        -0.282963
