19
Iteration:  2124charge 0 multiplicity 1
 C         0.127758        -0.531152        -0.241405
 C         1.080191         0.621419        -0.682634
 C         0.422678         1.237074        -1.832179
 C         1.350792         1.906887        -2.788885
 O         2.051314         3.086725        -2.194729
 C         2.762775         1.900102        -2.704707
 C         3.511275         1.041277        -1.568211
 C         2.612310         0.606927        -0.526022
 O         1.728976         1.480769         0.264330
 H         0.085155        -1.292117        -1.006805
 H         0.743182        -1.036898         0.706354
 H        -0.883183        -0.253397        -0.013274
 H        -0.271111         0.542141        -2.234650
 H        -0.150355         2.060324        -1.403442
 H         0.857960         2.183186        -3.682208
 H         3.374921         1.991546        -3.540637
 H         3.910696         0.108658        -2.026251
 H         4.425702         1.596858        -1.286201
 H         3.041145        -0.213281         0.117538
