19
Iteration:  3691charge 0 multiplicity 1
 C         0.135531        -0.590755        -0.089042
 C         0.989119         0.558162        -0.630103
 C         0.413568         1.397863        -1.842382
 C         1.368987         1.944270        -2.913608
 O         2.075816         3.171710        -2.418402
 C         2.878403         1.932744        -2.719417
 C         3.427594         1.211090        -1.528323
 C         2.515368         0.474244        -0.569770
 O         1.805860         1.234948         0.424890
 H         0.025529        -1.417966        -0.817987
 H         0.554893        -1.002991         0.757513
 H        -0.827067        -0.273264         0.221130
 H        -0.432645         0.904280        -2.372842
 H         0.183284         2.268010        -1.470712
 H         0.946605         2.026087        -3.958737
 H         3.632048         2.014131        -3.526811
 H         4.173387         0.439772        -1.793385
 H         3.966260         2.043552        -0.998169
 H         2.961327        -0.490410        -0.020240
