19
Iteration:  3704
 C         0.191818        -0.574049        -0.125023
 C         1.054025         0.502433        -0.697726
 C         0.467880         1.430392        -1.736473
 C         1.421326         1.988713        -2.850025
 O         2.118241         3.168107        -2.592297
 C         2.824072         1.955038        -2.675736
 C         3.356339         1.230796        -1.487098
 C         2.470562         0.510428        -0.529510
 O         1.731614         1.181836         0.461473
 H        -0.073088        -1.302410        -0.884038
 H         0.753469        -1.025567         0.672889
 H        -0.747383        -0.124891         0.259637
 H        -0.258837         0.806555        -2.181281
 H        -0.195890         2.092463        -1.261575
 H         1.022168         1.969780        -3.856952
 H         3.418824         1.908214        -3.588854
 H         3.887293         0.448111        -2.067224
 H         4.192438         1.733152        -0.909801
 H         3.005109        -0.477820        -0.260053
