19
Iteration:   802charge 0 multiplicity 1
 C         0.059911        -0.449229         0.034334
 C         1.117003         0.424226        -0.732719
 C         0.423210         1.412325        -1.630669
 C         1.210497         2.293421        -2.526655
 O         2.284203         3.162207        -1.988579
 C         2.645130         2.011698        -2.805605
 C         3.302105         0.988893        -1.974326
 C         2.567962         0.324639        -0.870618
 O         2.020774         1.158497         0.179116
 H        -0.598903         0.342480         0.572390
 H        -0.416797        -1.201916        -0.688360
 H         0.384519        -1.036167         0.834926
 H        -0.285420         0.920609        -2.198391
 H        -0.293708         2.086314        -1.093415
 H         0.612507         2.620108        -3.355070
 H         3.019458         2.307832        -3.731136
 H         3.565450         0.095415        -2.599902
 H         4.237018         1.376681        -1.572683
 H         3.039497        -0.569445        -0.524655
