19
Iteration:   655charge 0 multiplicity 1
 C         0.189470        -0.398167         0.062885
 C         1.031799         0.672937        -0.639830
 C         0.290282         1.555578        -1.655925
 C         1.293688         2.152563        -2.728809
 O         2.104276         3.206926        -2.170250
 C         2.759059         2.087091        -2.689219
 C         3.409441         0.992589        -1.787260
 C         2.396349         0.223870        -0.986669
 O         2.122830         0.888233         0.273421
 H        -0.220880         0.124497         0.890691
 H        -0.685719        -0.752025        -0.441932
 H         0.858078        -1.273828         0.523829
 H        -0.468239         1.016574        -2.035706
 H        -0.305424         2.355807        -1.238212
 H         0.794249         2.323862        -3.706884
 H         3.284191         2.441463        -3.679611
 H         4.097499         0.362165        -2.343809
 H         4.038101         1.486462        -1.037527
 H         2.580335        -0.905257        -0.870670
