19
Iteration:  1503charge 0 multiplicity 1
 C         0.343661        -0.433360         0.157353
 C         1.054719         0.472748        -0.834518
 C         0.325013         1.319087        -1.916328
 C         1.341173         2.153678        -2.729710
 O         2.078774         3.091921        -2.020482
 C         2.786922         1.958340        -2.589946
 C         3.431385         0.964347        -1.705183
 C         2.501255         0.405473        -0.688106
 O         1.768457         1.406831         0.017272
 H        -0.086506        -1.291441        -0.364730
 H         1.045640        -0.971200         0.917266
 H        -0.628058         0.094285         0.519299
 H        -0.253178         0.803941        -2.702473
 H        -0.256788         1.975254        -1.297911
 H         0.996236         2.360447        -3.693025
 H         3.381175         2.141891        -3.400986
 H         3.783380         0.140795        -2.318997
 H         4.303505         1.371472        -1.176051
 H         2.782928        -0.535767        -0.144335
