19
Iteration:  2304charge 0 multiplicity 1
 C         0.250573        -0.624655         0.068723
 C         1.003776         0.463139        -0.729362
 C         0.457389         1.218684        -1.929823
 C         1.397087         2.082491        -2.780381
 O         2.207768         3.186096        -2.193326
 C         2.846593         1.956969        -2.713720
 C         3.410744         0.935885        -1.699410
 C         2.456652         0.624425        -0.473355
 O         1.611415         1.505751         0.230239
 H         0.092859        -1.585139        -0.571787
 H         0.780711        -0.804966         0.950517
 H        -0.825556        -0.296237         0.219382
 H         0.275867         0.393984        -2.713707
 H        -0.469883         1.646379        -1.825331
 H         0.882838         2.427984        -3.749721
 H         3.498425         2.247546        -3.567914
 H         3.534751         0.025575        -2.314579
 H         4.379359         1.286262        -1.377971
 H         2.903204        -0.131673         0.067065
