19
Iteration:   107charge 0 multiplicity 1
 C         0.241396        -0.494720        -0.025514
 C         1.034901         0.566618        -0.652526
 C         0.289936         1.564602        -1.568626
 C         1.164403         2.291044        -2.685911
 O         2.318256         3.265064        -2.359295
 C         2.665408         1.917084        -2.814831
 C         3.418649         1.058676        -1.687398
 C         2.428525         0.223124        -0.887101
 O         2.029354         0.936382         0.381868
 H         0.763235        -1.249039         0.425203
 H        -0.342792         0.030231         0.765972
 H        -0.382769        -1.065229        -0.864467
 H        -0.583044         1.011760        -2.078269
 H        -0.121699         2.362529        -0.975704
 H         0.586470         2.831543        -3.406405
 H         3.037574         2.086731        -3.840041
 H         4.251128         0.454370        -2.220746
 H         3.833608         1.815005        -1.029668
 H         2.529457        -0.878355        -0.662751
