19
Iteration:  4079charge 0 multiplicity 1
 C         0.341995        -0.688916        -0.257699
 C         1.051233         0.559061        -0.694879
 C         0.437708         1.588604        -1.615669
 C         1.325294         1.910616        -2.765971
 O         2.127311         3.072198        -2.581837
 C         2.790130         1.860011        -2.700250
 C         3.491499         1.230552        -1.469996
 C         2.466338         0.542110        -0.576252
 O         1.584358         1.264054         0.403825
 H        -0.079284        -1.271166        -1.037828
 H         0.945908        -1.310949         0.332937
 H        -0.420708        -0.249308         0.430800
 H        -0.615822         1.292692        -2.039077
 H         0.365408         2.400964        -1.046340
 H         0.921396         2.021368        -3.769999
 H         3.394329         1.831844        -3.666853
 H         4.131097         0.406853        -1.660311
 H         4.072672         1.981768        -0.893435
 H         3.074420        -0.362094        -0.226865
