19
Iteration:  2772
 C         0.234686        -0.655351        -0.244683
 C         1.016443         0.517878        -0.676518
 C         0.430490         1.540126        -1.662155
 C         1.324030         1.959726        -2.834576
 O         2.091842         3.156910        -2.605311
 C         2.769616         1.860836        -2.653869
 C         3.428046         1.225298        -1.495088
 C         2.531991         0.490871        -0.477339
 O         1.785145         1.276433         0.413694
 H         0.308013        -1.418485        -1.093548
 H         0.626593        -0.960458         0.660685
 H        -0.859333        -0.537135        -0.173343
 H        -0.482576         0.955699        -2.012108
 H         0.125858         2.463413        -1.099549
 H         0.981470         1.743779        -3.780816
 H         3.357002         1.775239        -3.533632
 H         4.059807         0.450282        -1.848731
 H         4.136428         1.886676        -0.898414
 H         2.924580        -0.411590        -0.016356
