19
Iteration:  4495charge 0 multiplicity 1
 C         0.292120        -0.676768        -0.263572
 C         1.054943         0.580597        -0.720176
 C         0.449763         1.629097        -1.603877
 C         1.326491         1.984182        -2.774940
 O         2.198127         3.195944        -2.784883
 C         2.792888         1.859274        -2.690801
 C         3.342045         1.230042        -1.419852
 C         2.535150         0.432784        -0.515150
 O         1.627282         1.122724         0.512706
 H         0.643823        -1.637245        -0.590740
 H         0.313939        -0.531588         0.833260
 H        -0.771648        -0.775026        -0.462851
 H        -0.340461         1.122184        -2.027880
 H         0.131019         2.397265        -0.702029
 H         0.762773         1.849751        -3.655830
 H         3.419266         1.880597        -3.581418
 H         4.276302         0.592174        -1.716889
 H         3.884870         2.190954        -1.062967
 H         2.984361        -0.510898        -0.215333
