19
Iteration:   678charge 0 multiplicity 1
 C         0.068288        -0.430712         0.032466
 C         1.082755         0.552396        -0.657989
 C         0.485542         1.566294        -1.620875
 C         1.267635         2.274378        -2.708868
 O         2.091590         3.319772        -2.275462
 C         2.657372         1.990217        -2.718305
 C         3.348963         1.016570        -1.777493
 C         2.501716         0.185940        -0.879688
 O         2.112637         0.903690         0.315710
 H        -0.558282        -0.031375         0.828070
 H        -0.659795        -0.765831        -0.676653
 H         0.721173        -1.364961         0.448882
 H        -0.322830         1.125050        -2.084071
 H        -0.063490         2.290527        -1.010527
 H         0.635965         2.315817        -3.604255
 H         3.165606         2.202448        -3.726532
 H         3.936887         0.300388        -2.377731
 H         4.114330         1.518558        -1.192516
 H         2.863143        -0.881974        -0.666717
