19
Iteration:  1755charge 0 multiplicity 1
 C         0.092746        -0.466121         0.090694
 C         1.067320         0.594168        -0.638481
 C         0.446608         1.023448        -2.020205
 C         1.331020         2.050747        -2.801193
 O         2.051739         3.111276        -2.142618
 C         2.846683         2.042316        -2.681849
 C         3.478567         1.111591        -1.648567
 C         2.567112         0.464432        -0.602586
 O         1.786319         1.448228         0.174620
 H         0.444592        -1.482223        -0.051397
 H        -0.160509        -0.256647         1.203975
 H        -0.867917        -0.568266        -0.395270
 H         0.143160         0.241489        -2.666733
 H        -0.554910         1.475656        -1.658979
 H         0.953900         2.336638        -3.823066
 H         3.537299         2.282048        -3.625968
 H         3.792403         0.161137        -2.150539
 H         4.370063         1.527364        -1.120518
 H         3.008586        -0.356703         0.016947
