19
Iteration:  3931
 C         0.156710        -0.445608         0.066311
 C         1.125083         0.476932        -0.681619
 C         0.546707         1.026442        -2.059419
 C         1.339346         2.165937        -2.772631
 O         2.131991         3.102604        -2.004574
 C         2.818244         1.972177        -2.741670
 C         3.336966         0.990805        -1.726164
 C         2.556578         0.559696        -0.510374
 O         1.632698         1.492697         0.171818
 H        -0.366265        -1.274931        -0.559277
 H         0.776350        -0.845426         0.905315
 H        -0.717567         0.112746         0.418403
 H         0.579907         0.263675        -2.802287
 H        -0.530364         1.386547        -1.950205
 H         0.992684         2.504252        -3.793151
 H         3.538637         2.108298        -3.524051
 H         3.719173         0.106391        -2.312341
 H         4.221092         1.523249        -1.380094
 H         3.026848        -0.208354         0.049637
