19
Iteration:  4399
 C         0.217119        -0.596285         0.073238
 C         1.003115         0.500265        -0.716178
 C         0.461777         1.238601        -1.929776
 C         1.414700         2.043051        -2.775754
 O         2.132378         3.257480        -2.343814
 C         2.883084         1.985748        -2.678880
 C         3.397302         1.106357        -1.547410
 C         2.476814         0.442250        -0.617025
 O         1.656672         1.361000         0.249199
 H        -0.533102        -1.277197        -0.431336
 H         0.927189        -1.340626         0.652016
 H        -0.403472        -0.136612         0.792085
 H        -0.043433         0.485495        -2.606117
 H        -0.165169         2.021509        -1.682912
 H         0.913459         2.179823        -3.740230
 H         3.556042         2.266304        -3.449520
 H         3.939644         0.324970        -2.102662
 H         4.151555         1.556028        -0.955707
 H         2.817610        -0.456666        -0.052873
