19
Iteration:   606
 C         0.122252        -0.474368        -0.025323
 C         1.112961         0.442533        -0.684382
 C         0.392498         1.377084        -1.652914
 C         1.238659         2.357587        -2.551850
 O         2.285416         3.176309        -2.009427
 C         2.596573         1.957578        -2.752004
 C         3.347235         0.836060        -1.980749
 C         2.581851         0.331518        -0.786226
 O         1.973700         1.299023         0.176708
 H        -0.706566         0.083580         0.497743
 H        -0.445066        -0.952282        -0.844439
 H         0.543576        -1.158479         0.501196
 H        -0.409147         0.874310        -2.362894
 H        -0.353227         1.893413        -1.028245
 H         0.618271         2.918997        -3.241390
 H         3.026586         2.219230        -3.673432
 H         3.498529         0.037135        -2.739626
 H         4.368219         1.149760        -1.694318
 H         3.061441        -0.457411        -0.269339
