19
Iteration:    80charge 0 multiplicity 1
 C         0.084857        -0.680864         0.001751
 C         1.002125         0.432387        -0.647677
 C         0.487904         1.599949        -1.479520
 C         1.292533         2.353836        -2.542038
 O         2.364381         3.259254        -2.404052
 C         2.640637         1.888898        -2.799172
 C         3.289903         1.069434        -1.824802
 C         2.513301         0.394572        -0.821573
 O         1.918703         1.044886         0.268256
 H         0.766630        -1.389345         0.759089
 H        -0.813515        -0.351377         0.568157
 H        -0.039805        -1.355660        -0.764751
 H        -0.248651         1.158257        -2.127750
 H        -0.107712         2.341798        -0.817171
 H         0.617548         2.697953        -3.397486
 H         2.846418         1.921014        -3.832890
 H         3.701543         0.332651        -2.444096
 H         4.101760         1.698401        -1.366796
 H         2.960387        -0.471366        -0.438312
