19
Iteration:  1026
 C         0.095780        -0.480385        -0.042117
 C         1.105529         0.572555        -0.680393
 C         0.282836         1.602913        -1.565845
 C         1.201842         2.320085        -2.571960
 O         2.252540         3.207415        -2.315111
 C         2.636812         1.868958        -2.862330
 C         3.364207         1.133618        -1.767471
 C         2.549606         0.242177        -0.842687
 O         2.109648         0.905921         0.331088
 H        -0.519947        -0.082785         0.698825
 H        -0.570265        -0.939502        -0.712698
 H         0.822527        -1.328762         0.356321
 H        -0.670679         1.031260        -2.124032
 H        -0.059867         2.389445        -0.781766
 H         0.627794         2.723484        -3.468485
 H         2.936254         1.804229        -3.840109
 H         4.229176         0.552765        -2.101232
 H         3.769074         1.845591        -1.005810
 H         2.854404        -0.788260        -0.673346
