19
Iteration:  4870
 C         0.017721        -0.367262         0.078636
 C         1.045743         0.450416        -0.702891
 C         0.524328         1.061086        -1.996135
 C         1.411099         2.012372        -2.805263
 O         2.006980         3.143776        -2.071264
 C         2.853127         2.113879        -2.647800
 C         3.475138         1.086816        -1.656888
 C         2.577019         0.421863        -0.632365
 O         1.767268         1.402642         0.134464
 H        -0.470044        -1.271247        -0.442489
 H         0.584981        -0.961456         0.882228
 H        -0.748889         0.254430         0.527810
 H         0.178156         0.191634        -2.716404
 H        -0.491967         1.623744        -1.642986
 H         1.017115         2.413118        -3.704152
 H         3.433593         2.393293        -3.472663
 H         3.924250         0.277236        -2.355811
 H         4.335622         1.519383        -1.121738
 H         3.033505        -0.378483         0.000603
