19
Iteration:  3277charge 0 multiplicity 1
 C         0.209642        -0.687380        -0.572576
 C         1.090947         0.588927        -0.611590
 C         0.562749         1.748108        -1.546859
 C         1.234565         1.859825        -2.847662
 O         2.075805         3.093559        -2.901012
 C         2.759807         1.651391        -2.689196
 C         3.439604         1.434700        -1.348856
 C         2.538638         0.566350        -0.360517
 O         1.713098         1.067113         0.680219
 H        -0.109655        -0.870856        -1.600513
 H         0.708857        -1.627900        -0.256535
 H        -0.620348        -0.563204         0.043947
 H        -0.600726         1.826132        -1.528414
 H         0.784746         2.679677        -1.009653
 H         0.799310         1.593081        -3.799114
 H         3.321482         1.417978        -3.624730
 H         4.432746         1.132707        -1.544621
 H         3.638145         2.425467        -0.871150
 H         3.022115        -0.389253         0.060055
