19
Iteration:  4407
 C         0.212686        -0.615365         0.017979
 C         1.025305         0.493180        -0.714323
 C         0.431771         1.263636        -1.925518
 C         1.397071         2.083778        -2.817486
 O         2.123309         3.226242        -2.372872
 C         2.851594         1.977566        -2.674066
 C         3.416915         1.123335        -1.542143
 C         2.458411         0.463696        -0.532204
 O         1.707146         1.318877         0.276469
 H        -0.351691        -1.173451        -0.702855
 H         0.927013        -1.215734         0.559300
 H        -0.375514        -0.139108         0.846781
 H        -0.146691         0.788865        -2.650893
 H        -0.457111         2.023328        -1.539586
 H         1.073955         2.163283        -3.830927
 H         3.520408         1.985982        -3.573063
 H         3.891353         0.139296        -1.925678
 H         4.225319         1.667228        -0.926476
 H         2.912900        -0.284390         0.146585
