19
Iteration:  2301
 C         0.263450        -0.624257         0.069201
 C         1.004247         0.456250        -0.716968
 C         0.457141         1.214440        -1.950961
 C         1.401700         2.100666        -2.796312
 O         2.213796         3.201878        -2.203337
 C         2.833466         1.963691        -2.713228
 C         3.409338         0.932768        -1.705951
 C         2.459774         0.597045        -0.470348
 O         1.591847         1.504441         0.242663
 H         0.051912        -1.562182        -0.503928
 H         0.755553        -0.838060         1.050789
 H        -0.761546        -0.267619         0.288170
 H         0.281672         0.380383        -2.704497
 H        -0.525710         1.749991        -1.801707
 H         0.893273         2.371994        -3.790457
 H         3.554450         2.226535        -3.497633
 H         3.601646         0.042089        -2.364230
 H         4.383668         1.334703        -1.389808
 H         2.957483        -0.263159         0.115557
