19
Iteration:  2992charge 0 multiplicity 1
 C         0.288671        -0.600573         0.025042
 C         1.010100         0.512355        -0.684445
 C         0.435633         1.246057        -1.890111
 C         1.362806         2.042686        -2.878199
 O         2.168313         3.233895        -2.280094
 C         2.793734         1.984033        -2.648065
 C         3.408495         0.999596        -1.606530
 C         2.470075         0.475468        -0.552940
 O         1.637616         1.451573         0.246704
 H        -0.023460        -1.414393        -0.675850
 H         1.007801        -1.228740         0.671685
 H        -0.505442        -0.193318         0.588121
 H         0.140036         0.412782        -2.570440
 H        -0.413545         1.746279        -1.704249
 H         1.102265         2.203943        -3.870736
 H         3.445535         2.190079        -3.423038
 H         3.835384         0.250543        -2.182403
 H         4.345898         1.469671        -1.114484
 H         2.963596        -0.157842         0.250223
