19
Iteration:  1232charge 0 multiplicity 1
 C         0.061530        -0.305687         0.023574
 C         1.097669         0.522696        -0.708878
 C         0.396076         1.285477        -1.827275
 C         1.182999         2.263047        -2.640594
 O         2.154539         3.127814        -1.925138
 C         2.668547         1.981993        -2.749624
 C         3.395446         0.903918        -1.971794
 C         2.570240         0.352169        -0.732077
 O         2.081640         1.185970         0.224976
 H        -0.366948        -1.057532        -0.577089
 H         0.536655        -0.816317         0.791070
 H        -0.797774         0.445208         0.364329
 H        -0.020457         0.593684        -2.461346
 H        -0.521318         1.766512        -1.396020
 H         0.681701         2.716285        -3.605002
 H         3.144863         2.383562        -3.703011
 H         3.782289        -0.030781        -2.493330
 H         4.208541         1.521026        -1.529933
 H         3.151766        -0.441793        -0.284438
