19
Iteration:  1313
 C         0.190441        -0.528495        -0.185339
 C         1.081070         0.574934        -0.684181
 C         0.315823         1.407732        -1.654418
 C         1.265092         2.163171        -2.650063
 O         2.236195         3.153608        -2.184474
 C         2.670951         1.845578        -2.820362
 C         3.408428         0.967410        -1.827834
 C         2.541218         0.462864        -0.686893
 O         1.910410         1.292129         0.399822
 H        -0.853915        -0.046962        -0.013768
 H         0.166486        -1.346741        -1.010138
 H         0.468762        -0.991304         0.784597
 H        -0.467503         0.834525        -2.135090
 H        -0.017215         2.191472        -0.959238
 H         0.675549         2.551000        -3.487418
 H         3.117079         1.914397        -3.740448
 H         3.808399         0.104864        -2.321386
 H         4.230726         1.575917        -1.491576
 H         2.895064        -0.486097        -0.341908
