19
Iteration:   438charge 0 multiplicity 1
 C         0.079563        -0.622476        -0.062527
 C         0.991474         0.452769        -0.653454
 C         0.414009         1.609373        -1.480121
 C         1.197975         2.202369        -2.579913
 O         2.225139         3.226844        -2.244379
 C         2.714183         2.011514        -2.711693
 C         3.389346         0.957343        -1.917937
 C         2.525758         0.292749        -0.874398
 O         2.047129         1.203266         0.222881
 H        -0.060710        -0.329600         0.987908
 H        -0.848594        -0.629298        -0.535715
 H         0.492010        -1.682549        -0.156386
 H        -0.645757         1.214158        -1.812869
 H         0.276143         2.406452        -0.703212
 H         0.848282         2.353927        -3.562469
 H         3.070629         2.106090        -3.669410
 H         3.836880         0.142544        -2.525097
 H         4.061114         1.465043        -1.244055
 H         2.913815        -0.622119        -0.464886
