19
Iteration:  4786
 C         0.307875        -0.728777        -0.234721
 C         1.005997         0.513448        -0.679227
 C         0.472996         1.541679        -1.640451
 C         1.338944         1.953664        -2.786338
 O         2.134278         3.148591        -2.561059
 C         2.775928         1.895119        -2.659558
 C         3.460236         1.144210        -1.534736
 C         2.486906         0.547783        -0.464459
 O         1.637855         1.296665         0.362414
 H         0.433402        -1.459166        -1.083444
 H         0.586328        -0.917727         0.785422
 H        -0.741890        -0.407230        -0.144062
 H        -0.555470         1.392533        -2.053702
 H         0.369174         2.469673        -1.158324
 H         0.818827         1.990183        -3.849144
 H         3.438937         1.906616        -3.591269
 H         3.982828         0.274998        -1.960031
 H         4.289273         1.751007        -1.130869
 H         2.867376        -0.381547        -0.031913
