19
Iteration:  2866charge 0 multiplicity 1
 C         0.210088        -0.529779        -0.083921
 C         1.046625         0.514794        -0.726300
 C         0.360966         1.288506        -1.864011
 C         1.344425         1.973543        -2.830418
 O         2.053998         3.137978        -2.319972
 C         2.762498         1.920481        -2.631710
 C         3.518328         1.220269        -1.481276
 C         2.532034         0.438255        -0.637217
 O         1.817708         1.365280         0.315928
 H        -0.071006        -1.299937        -0.777615
 H         0.669268        -0.892337         0.836270
 H        -0.791050        -0.103445         0.184253
 H        -0.278328         0.689287        -2.420852
 H        -0.219274         1.992201        -1.345915
 H         0.997255         2.074653        -3.949417
 H         3.384346         1.961567        -3.605594
 H         4.080031         0.428416        -2.043326
 H         4.187016         1.835572        -0.946952
 H         2.830760        -0.498072        -0.194233
