19
Iteration:  1692
 C         0.098898        -0.544622         0.053446
 C         1.039945         0.513789        -0.648986
 C         0.439026         1.242751        -1.919990
 C         1.372179         2.052363        -2.800153
 O         2.036866         3.175641        -2.266173
 C         2.848627         2.037343        -2.674162
 C         3.447131         1.032356        -1.639436
 C         2.547206         0.488098        -0.609910
 O         1.795637         1.388526         0.249843
 H         0.649840        -0.896666         1.010370
 H        -0.903084        -0.216671         0.098531
 H         0.237399        -1.591118        -0.562905
 H        -0.098216         0.468855        -2.608178
 H        -0.361567         1.903228        -1.500224
 H         1.140771         1.991072        -3.827873
 H         3.287597         2.156262        -3.585183
 H         3.909463         0.218822        -2.211312
 H         4.242465         1.525583        -1.069718
 H         3.091589        -0.290750         0.001474
