19
Iteration:  4802charge 0 multiplicity 1
 C         0.206043        -0.777924        -0.196215
 C         1.023130         0.537423        -0.700489
 C         0.324590         1.550559        -1.729662
 C         1.362237         1.978048        -2.857712
 O         2.130161         3.132138        -2.434651
 C         2.889006         1.899796        -2.688578
 C         3.432310         1.147862        -1.518568
 C         2.530656         0.537035        -0.561970
 O         1.716811         1.399943         0.373302
 H         0.154103        -1.557440        -0.966595
 H         0.814309        -1.220031         0.682678
 H        -0.806530        -0.795723         0.310398
 H        -0.594801         0.911679        -2.073751
 H         0.098588         2.462157        -1.027290
 H         0.970287         1.904628        -3.788183
 H         3.372340         1.811550        -3.653245
 H         3.959289         0.268146        -1.955743
 H         4.269357         1.601881        -0.976910
 H         3.028016        -0.213327         0.075088
