19
Iteration:   229
 C         0.242635        -0.557161        -0.047381
 C         1.020624         0.537786        -0.688745
 C         0.321653         1.504216        -1.630993
 C         1.240659         2.307515        -2.527836
 O         2.278451         3.099786        -1.977294
 C         2.688815         1.872693        -2.784638
 C         3.356444         0.847349        -2.001199
 C         2.458258         0.361443        -0.822829
 O         1.978695         1.337996         0.182412
 H         0.597273        -0.761855         0.938387
 H        -0.835775        -0.311763        -0.000465
 H         0.295044        -1.539151        -0.718789
 H        -0.458053         1.123800        -2.352313
 H        -0.155908         2.182436        -0.960288
 H         0.666940         2.801226        -3.223707
 H         3.051692         2.271993        -3.644407
 H         3.640286         0.047174        -2.748942
 H         4.288619         1.280417        -1.674933
 H         2.893779        -0.436299        -0.233697
