19
Iteration:  1624
 C         0.268480        -0.621225        -0.125891
 C         1.045279         0.560211        -0.724455
 C         0.343111         1.422680        -1.702022
 C         1.286534         2.034874        -2.763136
 O         2.188803         2.999949        -2.250892
 C         2.769940         1.889519        -2.731620
 C         3.449027         1.119010        -1.615762
 C         2.530639         0.511943        -0.639640
 O         1.721606         1.437564         0.231443
 H        -0.374771        -0.332722         0.711653
 H        -0.326714        -1.224586        -0.977856
 H         1.118799        -1.371028         0.357386
 H        -0.405609         0.771437        -2.223510
 H        -0.173622         2.260448        -1.060192
 H         0.878374         2.299773        -3.667976
 H         3.253887         1.902263        -3.637808
 H         4.157728         0.314688        -1.906813
 H         4.046334         1.842585        -1.015920
 H         2.976833        -0.315052        -0.029746
