19
Iteration:  4253charge 0 multiplicity 1
 C         0.249823        -0.638636        -0.112333
 C         0.997339         0.533425        -0.742560
 C         0.313221         1.303633        -1.812307
 C         1.327049         2.053734        -2.787823
 O         2.197560         3.048130        -2.212369
 C         2.798120         1.852723        -2.697601
 C         3.496837         1.190538        -1.541585
 C         2.499156         0.524834        -0.520025
 O         1.738719         1.471773         0.169241
 H         0.168907        -1.366621        -0.920486
 H         0.662716        -1.079059         0.745487
 H        -0.925096        -0.398727         0.039005
 H        -0.317415         0.650469        -2.506337
 H        -0.313190         2.102827        -1.355688
 H         0.914410         2.176530        -3.776335
 H         3.402511         2.007662        -3.651845
 H         4.161109         0.318390        -1.765782
 H         4.149060         1.894351        -0.999316
 H         2.974222        -0.312819         0.064288
