19
Iteration:  4827charge 0 multiplicity 1
 C         0.247022        -0.518547        -0.182936
 C         1.028699         0.637463        -0.664784
 C         0.423124         1.262924        -1.861769
 C         1.310897         2.031445        -2.751189
 O         2.174324         3.128646        -2.305173
 C         2.787353         1.872973        -2.705658
 C         3.428967         1.143856        -1.537411
 C         2.513733         0.473918        -0.595877
 O         1.712582         1.359368         0.320272
 H        -0.180572        -1.190353        -0.996326
 H         0.837385        -1.164785         0.487033
 H        -0.527249        -0.410549         0.531056
 H        -0.021718         0.482131        -2.404374
 H        -0.310584         1.971402        -1.344483
 H         0.742588         2.133628        -3.692526
 H         3.306517         1.925467        -3.619498
 H         4.161982         0.355422        -1.970689
 H         4.139585         1.811397        -0.999949
 H         2.818886        -0.412904        -0.024023
