19
Iteration:  4534
 C         0.060556        -0.683746        -0.359670
 C         1.038007         0.531158        -0.610937
 C         0.431923         1.636602        -1.556886
 C         1.332548         1.872227        -2.818287
 O         2.143822         3.077309        -2.667759
 C         2.804389         1.799706        -2.707089
 C         3.413255         1.495660        -1.387236
 C         2.533724         0.499586        -0.598433
 O         1.890192         1.111077         0.479077
 H         0.400071        -1.736092        -0.600260
 H         0.041350        -0.685458         0.753600
 H        -0.984915        -0.341097        -0.768647
 H        -0.574840         1.213385        -2.037859
 H         0.207857         2.567003        -1.178599
 H         0.864669         1.865461        -3.851097
 H         3.426034         1.466009        -3.607770
 H         4.391763         1.120344        -1.497924
 H         3.424063         2.352731        -0.741931
 H         2.929879        -0.510529        -0.379718
