19
Iteration:  1981
 C         0.281746        -0.615815        -0.050064
 C         0.992953         0.575440        -0.554094
 C         0.480188         1.250148        -1.856764
 C         1.368282         2.089491        -2.852263
 O         2.175816         3.162294        -2.390861
 C         2.828297         1.929681        -2.672425
 C         3.370778         1.050425        -1.640318
 C         2.471703         0.574311        -0.548498
 O         1.631559         1.404356         0.332771
 H         0.572022        -1.461005        -0.641665
 H         0.724889        -0.999786         0.976318
 H        -0.779126        -0.455644        -0.089182
 H         0.087331         0.328697        -2.454010
 H        -0.356699         1.825957        -1.472508
 H         0.987434         2.244972        -3.814649
 H         3.423225         2.046271        -3.490834
 H         3.676524         0.095041        -2.088306
 H         4.325847         1.481651        -1.269436
 H         2.922536        -0.253547        -0.019614
