19
Iteration:  1961charge 0 multiplicity 1
 C         0.219588        -0.699184        -0.070204
 C         1.012071         0.468719        -0.727445
 C         0.282151         1.360945        -1.814331
 C         1.362829         2.000162        -2.699187
 O         2.216791         3.195755        -2.414285
 C         2.813408         1.886306        -2.757755
 C         3.529837         1.160270        -1.563228
 C         2.466871         0.504631        -0.495931
 O         1.702134         1.448706         0.273984
 H         0.486923        -1.676171        -0.392634
 H         0.697692        -0.709859         1.055628
 H        -0.814829        -0.462945        -0.105746
 H        -0.243002         0.548377        -2.563402
 H        -0.430313         2.083666        -1.442865
 H         0.841492         2.234592        -3.686673
 H         3.286833         1.832633        -3.751243
 H         4.096429         0.276113        -1.877650
 H         4.274453         1.725455        -1.007593
 H         2.894935        -0.186811         0.161001
