19
Iteration:  2474charge 0 multiplicity 1
 C         0.282657        -0.687453        -0.187622
 C         1.066954         0.578055        -0.617209
 C         0.444428         1.433124        -1.756422
 C         1.307299         1.945211        -2.834630
 O         2.116344         3.100176        -2.420978
 C         2.832938         1.897090        -2.696989
 C         3.435364         1.091468        -1.507632
 C         2.482200         0.565557        -0.509088
 O         1.668836         1.454598         0.307330
 H        -0.308194        -1.050172        -1.066373
 H         0.992238        -1.642853         0.055313
 H        -0.435576        -0.578087         0.662345
 H        -0.331403         0.899316        -2.220695
 H        -0.066588         2.334090        -1.283978
 H         1.036303         2.051231        -3.838901
 H         3.433647         1.936127        -3.631550
 H         3.693405         0.150119        -2.033488
 H         4.321123         1.601085        -0.984777
 H         2.911485        -0.294759         0.087561
