19
Iteration:  2288
 C         0.257846        -0.567726         0.106774
 C         1.057748         0.531092        -0.619180
 C         0.463431         1.159341        -2.053646
 C         1.385619         2.183636        -2.867767
 O         2.203167         3.217412        -2.277265
 C         2.846293         1.994554        -2.640614
 C         3.362521         1.007014        -1.657898
 C         2.511890         0.397961        -0.559818
 O         1.541460         1.418761         0.258164
 H         0.033906        -1.436921        -0.432088
 H         0.956155        -0.908243         0.999888
 H        -0.586078        -0.093461         0.553425
 H        -0.057347         0.466100        -2.691052
 H        -0.387662         1.824838        -1.542775
 H         1.099300         2.374953        -3.880883
 H         3.451544         2.027577        -3.538058
 H         3.750779         0.102447        -2.177388
 H         4.289782         1.440978        -1.183848
 H         2.940482        -0.287922         0.312811
