19
Iteration:  1521charge 0 multiplicity 1
 C         0.152055        -0.418329         0.041111
 C         1.039924         0.508098        -0.739773
 C         0.378771         1.216139        -1.853072
 C         1.290968         2.031483        -2.778591
 O         2.146198         3.121749        -2.020246
 C         2.753534         2.009763        -2.647322
 C         3.464071         1.027401        -1.719906
 C         2.570842         0.402292        -0.685497
 O         1.827002         1.377283         0.084263
 H        -0.690076        -1.019058        -0.426203
 H         0.894460        -1.243332         0.489892
 H        -0.277491         0.178006         0.762579
 H        -0.242520         0.488206        -2.355388
 H        -0.379066         2.066018        -1.505129
 H         0.800977         2.551789        -3.670028
 H         3.313500         2.262968        -3.653337
 H         4.023655         0.255685        -2.340270
 H         4.171268         1.608715        -1.063664
 H         3.050390        -0.307491        -0.054584
