19
Iteration:  1738charge 0 multiplicity 1
 C         0.181199        -0.410039         0.076755
 C         1.023129         0.519896        -0.772159
 C         0.406445         1.189041        -1.983683
 C         1.334227         2.010339        -2.815868
 O         2.020165         3.016248        -2.066623
 C         2.778233         1.919444        -2.618560
 C         3.534497         1.114693        -1.597065
 C         2.527618         0.491110        -0.632289
 O         1.838465         1.450266         0.119062
 H         0.676319        -1.434036         0.198885
 H        -0.057914         0.211368         0.886033
 H        -0.814970        -0.743986        -0.419359
 H         0.148223         0.268197        -2.665435
 H        -0.524882         1.702430        -1.877064
 H         0.882946         2.385128        -3.735125
 H         3.342041         2.251697        -3.425720
 H         4.284677         0.483539        -2.066204
 H         4.027970         1.889569        -0.993959
 H         2.908453        -0.343030        -0.013216
