19
Iteration:   245charge 0 multiplicity 1
 C         0.144949        -0.498949        -0.034437
 C         1.104287         0.510112        -0.716193
 C         0.377414         1.477836        -1.607193
 C         1.218849         2.273661        -2.602314
 O         2.232804         3.116762        -1.964054
 C         2.675330         2.060884        -2.715456
 C         3.317442         0.807671        -2.011205
 C         2.676655         0.357680        -0.766527
 O         1.913326         1.267876         0.114219
 H         0.494160        -0.737913         1.020093
 H        -0.844408        -0.024709         0.091441
 H        -0.040148        -1.376240        -0.544678
 H        -0.339824         0.828114        -2.055819
 H        -0.158944         2.197171        -0.906333
 H         0.696985         2.718692        -3.576682
 H         3.157629         2.268425        -3.807745
 H         3.132062        -0.103990        -2.558168
 H         4.427714         0.931986        -1.766349
 H         3.006425        -0.570987        -0.241935
