19
Iteration:  3615
 C         0.218144        -0.529635         0.109858
 C         0.992255         0.517732        -0.664206
 C         0.538870         1.035229        -2.036599
 C         1.473418         2.099632        -2.793610
 O         2.100892         3.158371        -2.058002
 C         2.906789         2.053683        -2.704605
 C         3.310239         0.951908        -1.765949
 C         2.430857         0.593442        -0.576961
 O         1.677534         1.506317         0.221415
 H         0.004881        -1.339070        -0.657706
 H         0.741471        -0.959442         0.894011
 H        -0.758299        -0.236856         0.470075
 H         0.471307         0.152156        -2.666060
 H        -0.570678         1.631228        -1.965923
 H         1.119190         2.478300        -3.799323
 H         3.505878         2.265200        -3.594756
 H         3.337323        -0.055682        -2.242786
 H         4.366259         1.135960        -1.385677
 H         2.913090        -0.206132         0.138391
