19
Iteration:   566charge 0 multiplicity 1
 C         0.361538        -0.616139        -0.031573
 C         1.028561         0.679076        -0.591022
 C         0.385934         1.459803        -1.781319
 C         1.238090         2.433628        -2.602823
 O         2.285677         3.064742        -1.907902
 C         2.677346         1.978423        -2.753814
 C         3.227971         0.734707        -2.096428
 C         2.390104         0.364423        -0.785805
 O         1.955040         1.324156         0.256833
 H        -0.665669        -0.445618         0.178795
 H         0.494401        -1.510667        -0.733454
 H         0.809345        -0.861313         1.104378
 H        -0.215932         0.780176        -2.345993
 H        -0.256691         2.184334        -1.263870
 H         0.789862         3.030376        -3.415919
 H         3.283721         2.208252        -3.724829
 H         3.133492        -0.145550        -2.744636
 H         4.326234         0.863176        -1.956944
 H         2.778793        -0.576778        -0.341214
