19
Iteration:  4150
 C         0.117972        -0.583904        -0.198547
 C         1.062160         0.561974        -0.713204
 C         0.325028         1.509505        -1.668835
 C         1.318516         1.927504        -2.849888
 O         2.168539         3.038392        -2.569559
 C         2.796204         1.777447        -2.699519
 C         3.472932         1.492116        -1.386329
 C         2.610227         0.539081        -0.601614
 O         1.788982         1.103613         0.417921
 H         0.067056        -1.439627        -0.915090
 H         0.326094        -1.116402         0.790026
 H        -0.828915        -0.162700        -0.097435
 H        -0.505946         1.055652        -2.066217
 H        -0.025041         2.504045        -1.127242
 H         0.896128         1.924003        -3.886412
 H         3.294925         1.506904        -3.600815
 H         4.513015         1.063910        -1.591338
 H         3.475622         2.225216        -0.568317
 H         3.070984        -0.377272        -0.489242
