19
Iteration:  3939
 C         0.153574        -0.452223         0.064141
 C         1.050377         0.524345        -0.717402
 C         0.491024         0.997580        -2.103985
 C         1.384661         2.134919        -2.767684
 O         2.156877         3.070823        -2.003130
 C         2.771389         2.000454        -2.679763
 C         3.353393         0.986388        -1.685018
 C         2.527258         0.561761        -0.520949
 O         1.738239         1.509395         0.127251
 H        -0.076345        -1.452227        -0.537138
 H         0.616805        -0.852903         0.937565
 H        -0.664833         0.158873         0.478380
 H         0.484742         0.182389        -2.765700
 H        -0.649672         1.287138        -2.010943
 H         0.818494         2.677649        -3.565735
 H         3.356556         2.234249        -3.600689
 H         3.881486         0.141428        -2.210795
 H         4.180502         1.634650        -1.264425
 H         2.985540        -0.176950         0.098276
