19
Iteration:  4039charge 0 multiplicity 1
 C         0.185670        -0.641128        -0.216865
 C         1.022117         0.559867        -0.618876
 C         0.370097         1.337001        -1.780902
 C         1.287800         2.068100        -2.744326
 O         2.202245         3.123160        -2.484750
 C         2.777030         1.829133        -2.731396
 C         3.448777         1.257198        -1.484791
 C         2.491477         0.504371        -0.580094
 O         1.840133         1.337083         0.430691
 H        -0.004082        -1.319489        -1.165956
 H         0.623576        -1.303712         0.550683
 H        -0.737612        -0.254544         0.180643
 H        -0.084823         0.600183        -2.448074
 H        -0.566427         2.028746        -1.492103
 H         0.653440         2.095646        -3.681684
 H         3.388743         1.668905        -3.624241
 H         4.244140         0.603955        -1.954857
 H         4.024525         2.035393        -0.943506
 H         2.826252        -0.338618        -0.053439
