19
Iteration:  3139
 C         0.273031        -0.623682        -0.426330
 C         1.112408         0.692595        -0.640167
 C         0.528373         1.648560        -1.575967
 C         1.268683         1.866513        -2.862559
 O         2.099275         3.035409        -2.713882
 C         2.777059         1.747097        -2.739297
 C         3.345213         1.370135        -1.357564
 C         2.527746         0.480709        -0.466182
 O         1.717980         1.118902         0.533380
 H        -0.261180        -0.909944        -1.353826
 H         0.919483        -1.386739        -0.064309
 H        -0.516118        -0.578494         0.495054
 H        -0.483447         1.283138        -1.797680
 H         0.308655         2.629374        -1.080476
 H         0.640153         1.918758        -3.791740
 H         3.532965         1.684229        -3.626103
 H         4.460496         1.088245        -1.254000
 H         3.503315         2.326275        -0.831978
 H         2.863276        -0.568425        -0.383118
