19
Iteration:  1297charge 0 multiplicity 1
 C         0.296806        -0.581767        -0.081171
 C         1.042746         0.600396        -0.679257
 C         0.373260         1.571584        -1.655550
 C         1.235662         2.199874        -2.686515
 O         2.236383         3.114889        -2.171291
 C         2.664530         1.919717        -2.714852
 C         3.344951         0.929079        -1.790953
 C         2.506066         0.365333        -0.684540
 O         1.865159         1.265533         0.210223
 H        -0.738932        -0.549528        -0.205000
 H         0.621678        -1.521328        -0.425163
 H         0.614012        -0.626779         0.961194
 H        -0.348587         0.986174        -2.274420
 H        -0.293242         2.299199        -1.166620
 H         0.777084         2.488594        -3.680815
 H         3.204520         2.051423        -3.748750
 H         3.745553         0.045679        -2.407376
 H         4.318455         1.362846        -1.398930
 H         2.945449        -0.521395        -0.147064
