19
Iteration:  1024charge 0 multiplicity 1
 C         0.096725        -0.467146        -0.049539
 C         1.116019         0.575338        -0.680140
 C         0.305694         1.593449        -1.577564
 C         1.195409         2.327112        -2.556628
 O         2.242078         3.212001        -2.306172
 C         2.617691         1.851919        -2.866182
 C         3.372761         1.128043        -1.768110
 C         2.547924         0.248089        -0.828336
 O         2.113910         0.899111         0.333387
 H        -0.618323        -0.076881         0.641711
 H        -0.546361        -0.983046        -0.733995
 H         0.801122        -1.254334         0.351698
 H        -0.640636         1.037202        -2.107421
 H        -0.061170         2.428556        -0.823743
 H         0.649249         2.692226        -3.476614
 H         2.933269         1.794079        -3.848939
 H         4.200340         0.544148        -2.102027
 H         3.755174         1.851758        -1.069127
 H         2.858209        -0.753830        -0.737375
