19
Iteration:  1513
 C         0.228363        -0.439023         0.066068
 C         1.047551         0.479467        -0.810318
 C         0.390759         1.293928        -1.900156
 C         1.291803         2.029548        -2.754086
 O         2.143917         3.121034        -2.000694
 C         2.734408         1.984564        -2.610377
 C         3.440580         1.002263        -1.708511
 C         2.520611         0.364899        -0.677674
 O         1.794384         1.412077         0.039880
 H        -0.423704        -1.166463        -0.443686
 H         1.025473        -0.923446         0.855397
 H        -0.217642         0.208038         0.883227
 H        -0.309910         0.684115        -2.490247
 H        -0.308895         2.001436        -1.360202
 H         0.914997         2.402493        -3.661301
 H         3.309881         2.296300        -3.400793
 H         3.974945         0.273554        -2.343292
 H         4.245900         1.646771        -1.306955
 H         2.961449        -0.392959        -0.011115
