19
Iteration:  1670
 C         0.209670        -0.569273        -0.116616
 C         1.023548         0.570443        -0.593385
 C         0.504120         1.228827        -1.794209
 C         1.290339         2.035407        -2.807942
 O         2.159018         3.210036        -2.361198
 C         2.788287         2.017451        -2.728904
 C         3.393209         1.041189        -1.654343
 C         2.489377         0.510498        -0.529847
 O         1.771367         1.356882         0.354968
 H         0.163435        -0.547162         1.066139
 H        -0.738952        -0.346093        -0.562398
 H         0.618405        -1.737676        -0.375563
 H         0.223987         0.330511        -2.496760
 H        -0.461119         1.685333        -1.469015
 H         0.675679         2.302776        -3.636579
 H         3.434979         2.106307        -3.514044
 H         3.627794         0.186159        -2.293738
 H         4.348802         1.474216        -1.353819
 H         2.875146        -0.377936         0.054266
