19
Iteration:  3715
 C         0.226207        -0.600830        -0.191670
 C         1.065398         0.542905        -0.674110
 C         0.442445         1.436432        -1.705940
 C         1.254006         1.985217        -2.773396
 O         2.171523         3.255340        -2.698623
 C         2.812919         1.958468        -2.673755
 C         3.485613         1.190079        -1.453923
 C         2.530220         0.463674        -0.509236
 O         1.653245         1.182043         0.455279
 H        -0.202427        -1.266327        -0.913651
 H         0.688672        -1.203042         0.583131
 H        -0.602885        -0.092504         0.346108
 H        -0.117699         0.781812        -2.335389
 H        -0.123082         2.189154        -1.284553
 H         0.822888         1.752830        -3.731449
 H         3.382680         1.795319        -3.596388
 H         3.948568         0.302224        -1.930077
 H         4.301137         1.711190        -0.854091
 H         2.937628        -0.523052         0.000467
