19
Iteration:  1710
 C         0.217918        -0.439217         0.039217
 C         1.051369         0.516924        -0.780137
 C         0.369964         1.224508        -1.905689
 C         1.346838         1.978387        -2.834535
 O         2.024919         3.079793        -2.164471
 C         2.810422         1.954185        -2.600338
 C         3.526268         1.121550        -1.569727
 C         2.563347         0.429309        -0.608907
 O         1.751819         1.404510         0.132022
 H         0.819989        -0.959430         0.713030
 H        -0.581203         0.282383         0.501346
 H        -0.236711        -1.208217        -0.446301
 H        -0.219693         0.500529        -2.367307
 H        -0.391105         2.046072        -1.612888
 H         0.842988         2.411845        -3.734205
 H         3.561410         2.336471        -3.426954
 H         4.010962         0.337261        -2.209648
 H         4.304519         1.727906        -1.045639
 H         2.860730        -0.504358        -0.121219
