19
Iteration:  2902charge 0 multiplicity 1
 C         0.095816        -0.415771         0.135659
 C         1.046488         0.535468        -0.654163
 C         0.542691         1.102967        -2.020671
 C         1.391400         2.011253        -2.883842
 O         1.963553         3.209606        -2.177529
 C         2.843438         2.090955        -2.600451
 C         3.433564         1.154564        -1.635733
 C         2.500387         0.378818        -0.629364
 O         1.819747         1.298367         0.231381
 H         0.031884        -1.454826        -0.367804
 H         0.431602        -0.602093         1.108580
 H        -0.867509         0.108985         0.190075
 H         0.227861         0.222547        -2.630764
 H        -0.354787         1.609012        -1.860727
 H         1.111380         2.125211        -3.981648
 H         3.485708         2.335241        -3.486152
 H         3.747951         0.420223        -2.366623
 H         4.449713         1.430431        -1.214195
 H         2.989296        -0.465192        -0.171427
