19
Iteration:  4018
 C         0.142001        -0.505806        -0.114278
 C         1.044149         0.530484        -0.574780
 C         0.480073         1.271302        -1.820652
 C         1.377690         1.965434        -2.809000
 O         2.081094         3.237364        -2.427686
 C         2.816639         1.987749        -2.708688
 C         3.450586         1.123029        -1.592763
 C         2.585776         0.489113        -0.561838
 O         1.717797         1.266780         0.383501
 H         0.075713        -1.427369        -0.882502
 H         0.473895        -0.879225         0.925536
 H        -0.901176        -0.135302         0.004518
 H        -0.003671         0.607138        -2.461406
 H        -0.490069         1.934614        -1.450533
 H         0.815704         1.935523        -3.794548
 H         3.313606         2.158339        -3.649168
 H         4.048783         0.297686        -2.126368
 H         4.232557         1.623649        -0.988851
 H         2.926347        -0.361112        -0.071025
