19
Iteration:   623charge 0 multiplicity 1
 C         0.101966        -0.430222         0.006283
 C         1.063958         0.510345        -0.718716
 C         0.376296         1.490815        -1.642335
 C         1.216196         2.314000        -2.559650
 O         2.176742         3.155113        -2.042268
 C         2.694052         2.001547        -2.786598
 C         3.381200         0.922918        -1.918163
 C         2.593879         0.229863        -0.789048
 O         2.009052         1.138315         0.117059
 H        -0.362484         0.261545         0.741274
 H        -0.753754        -0.840347        -0.549051
 H         0.676992        -1.359128         0.681260
 H        -0.223856         0.868734        -2.253681
 H        -0.167916         2.216635        -0.973945
 H         0.629706         2.646303        -3.446561
 H         3.163054         2.305398        -3.790344
 H         3.900310         0.090090        -2.464606
 H         4.141146         1.510785        -1.381192
 H         2.940058        -0.721898        -0.250314
