19
Iteration:  1525
 C         0.126429        -0.426208         0.033077
 C         1.054605         0.522616        -0.700110
 C         0.357675         1.199365        -1.846653
 C         1.296688         2.057211        -2.779776
 O         2.131400         3.110402        -2.042307
 C         2.777004         2.024457        -2.689061
 C         3.479168         1.045239        -1.728150
 C         2.575198         0.435699        -0.693941
 O         1.845169         1.354524         0.115442
 H        -0.728397        -0.859523        -0.488062
 H         0.757364        -1.379375         0.389141
 H        -0.439737         0.205262         0.843872
 H        -0.170192         0.399902        -2.417500
 H        -0.353922         1.945967        -1.484486
 H         0.813539         2.497588        -3.586984
 H         3.278630         2.159249        -3.566044
 H         4.018710         0.275046        -2.268563
 H         4.175258         1.543782        -1.036650
 H         3.062541        -0.376550        -0.088648
