19
Iteration:  2390
 C         0.068896        -0.546470         0.098591
 C         0.970837         0.499914        -0.599989
 C         0.520366         1.225336        -1.884923
 C         1.414792         2.053095        -2.843396
 O         2.056680         3.239940        -2.433001
 C         2.877065         2.015819        -2.665048
 C         3.523832         1.174661        -1.578966
 C         2.486631         0.407046        -0.617640
 O         1.731952         1.280571         0.256342
 H        -0.164744        -1.490610        -0.526178
 H         0.631675        -0.846295         0.904132
 H        -0.781368        -0.060611         0.621477
 H         0.015306         0.404775        -2.528434
 H        -0.317431         1.956151        -1.608678
 H         0.897242         2.087945        -3.895617
 H         3.571744         2.320925        -3.451621
 H         4.086100         0.371669        -2.132723
 H         4.285330         1.575446        -0.918239
 H         2.841730        -0.445074         0.064386
