19
Iteration:   470
 C         0.176036        -0.356335        -0.038913
 C         1.139759         0.626031        -0.623087
 C         0.404568         1.585214        -1.647910
 C         1.201395         2.255852        -2.688972
 O         2.107785         3.247776        -2.187866
 C         2.622288         1.998692        -2.696933
 C         3.375492         0.951568        -1.917223
 C         2.484299         0.226196        -0.841014
 O         2.073841         0.875536         0.364182
 H        -0.315170         0.132641         0.727412
 H        -0.485666        -0.821858        -0.659322
 H         0.840540        -1.160529         0.436103
 H        -0.380819         0.907546        -2.185322
 H        -0.338803         2.263604        -1.163581
 H         0.820608         2.417681        -3.687266
 H         3.114787         2.160722        -3.592272
 H         4.014742         0.273768        -2.565244
 H         4.205447         1.351188        -1.351437
 H         2.816273        -0.800942        -0.711733
