19
Iteration:   548
 C         0.318492        -0.561377         0.019043
 C         1.043925         0.549286        -0.755522
 C         0.274060         1.577676        -1.700105
 C         1.253134         2.314815        -2.624134
 O         2.296047         3.103435        -1.886041
 C         2.674361         1.966529        -2.724201
 C         3.210797         0.800048        -2.014997
 C         2.488455         0.333060        -0.786969
 O         1.981990         1.280933         0.150293
 H        -0.759691        -0.515964         0.172303
 H         0.597107        -1.453539        -0.470272
 H         0.705892        -0.536384         1.059243
 H        -0.199924         0.874583        -2.492247
 H        -0.192523         2.385836        -1.047583
 H         0.797393         2.892801        -3.434179
 H         3.162245         2.299704        -3.616342
 H         3.129415        -0.134435        -2.686602
 H         4.244649         1.028130        -1.731328
 H         2.952577        -0.600362        -0.318632
