19
Iteration:  2367
 C         0.224568        -0.439717        -0.042707
 C         1.087686         0.549900        -0.740631
 C         0.360066         1.240968        -1.942015
 C         1.395459         1.934195        -2.806159
 O         2.048292         3.097612        -2.206241
 C         2.829809         1.926589        -2.625534
 C         3.427133         1.142546        -1.602544
 C         2.507074         0.474095        -0.570044
 O         1.782520         1.411151         0.253348
 H         0.228737        -1.417598        -0.626990
 H         0.421446        -0.644863         0.973098
 H        -0.820259        -0.068592        -0.013004
 H        -0.135009         0.439869        -2.570487
 H        -0.415885         1.960682        -1.464477
 H         0.981215         2.228635        -3.830440
 H         3.525849         2.193486        -3.445150
 H         3.875518         0.227564        -2.088624
 H         4.322094         1.627084        -1.195504
 H         2.777271        -0.475622         0.077343
