19
Iteration:   962charge 0 multiplicity 1
 C         0.192294        -0.680534        -0.107725
 C         1.076997         0.544351        -0.682094
 C         0.450655         1.705937        -1.463757
 C         1.239965         2.281622        -2.633841
 O         2.180362         3.210597        -2.175792
 C         2.679040         2.014159        -2.694213
 C         3.261267         0.817748        -1.919910
 C         2.526565         0.298228        -0.847552
 O         1.980530         1.186720         0.251607
 H        -0.846374        -0.431005        -0.041986
 H         0.367722        -1.602919        -0.640295
 H         0.533549        -0.768748         1.044836
 H        -0.418441         1.325740        -1.853416
 H         0.242964         2.535676        -0.838854
 H         0.662839         2.448118        -3.588643
 H         3.153260         2.122919        -3.689231
 H         3.401117         0.028190        -2.698269
 H         4.338737         1.060672        -1.604727
 H         2.912259        -0.701361        -0.497485
