19
Iteration:  4219charge 0 multiplicity 1
 C         0.225928        -0.594286        -0.338693
 C         1.102213         0.547814        -0.625018
 C         0.394035         1.426326        -1.783797
 C         1.348430         1.933048        -2.837041
 O         2.087624         3.100846        -2.453076
 C         2.823104         1.887863        -2.705550
 C         3.451307         1.144859        -1.527395
 C         2.536434         0.618575        -0.413974
 O         1.699779         1.331506         0.484045
 H        -0.004889        -1.103392        -1.256585
 H         0.673893        -1.379231         0.255203
 H        -0.702795        -0.221013         0.285560
 H        -0.294705         0.782751        -2.363747
 H        -0.276920         2.199409        -1.250957
 H         1.008517         1.820050        -3.860351
 H         3.407379         1.917579        -3.665233
 H         3.720477         0.129185        -1.947710
 H         4.349170         1.778105        -1.358630
 H         2.978151        -0.256000         0.064616
