19
Iteration:  1072
 C         0.167494        -0.601460        -0.094582
 C         1.031972         0.484970        -0.664201
 C         0.357295         1.695139        -1.491184
 C         1.230961         2.192309        -2.680784
 O         2.112185         3.263424        -2.326989
 C         2.768788         2.022368        -2.753413
 C         3.416287         0.953236        -1.853209
 C         2.492417         0.265465        -0.736248
 O         2.012832         1.072372         0.333278
 H         0.236393        -0.517471         1.004424
 H        -0.912829        -0.397256        -0.263286
 H         0.450466        -1.594406        -0.434319
 H        -0.703890         1.419066        -1.941792
 H         0.243635         2.589128        -0.869162
 H         0.765778         2.282400        -3.649364
 H         3.324911         2.185115        -3.724944
 H         3.705930         0.101249        -2.564036
 H         4.387962         1.301092        -1.349852
 H         2.960792        -0.738719        -0.411440
