19
Iteration:  2733
 C         0.069594        -0.461041        -0.128830
 C         1.084970         0.565283        -0.677146
 C         0.462995         1.352959        -1.742143
 C         1.351660         1.954382        -2.811160
 O         2.071205         3.140305        -2.464121
 C         2.796781         1.839201        -2.726003
 C         3.481315         1.382451        -1.479461
 C         2.577922         0.454450        -0.611267
 O         1.761750         1.133322         0.397840
 H         0.111187        -1.291669        -0.771843
 H         0.457627        -0.924799         0.890098
 H        -0.940643        -0.085748        -0.035194
 H        -0.188311         0.660176        -2.261554
 H        -0.219162         2.055441        -1.266004
 H         0.989994         1.888199        -3.936591
 H         3.325163         1.740786        -3.742525
 H         4.422981         0.885611        -1.920014
 H         3.787736         2.257953        -0.976202
 H         3.058524        -0.470476        -0.195166
