19
Iteration:  4303
 C         0.100105        -0.521179         0.089927
 C         0.984866         0.510736        -0.672259
 C         0.485619         1.091792        -2.010553
 C         1.420007         2.060893        -2.832571
 O         2.050505         3.170196        -2.126276
 C         2.898126         2.116673        -2.574497
 C         3.358728         1.011165        -1.739305
 C         2.528642         0.453167        -0.615698
 O         1.799068         1.442388         0.207826
 H         0.118908        -1.595793        -0.240511
 H         0.477117        -0.416974         1.172360
 H        -0.880219        -0.225481         0.044645
 H         0.367439         0.332436        -2.776850
 H        -0.490936         1.651514        -1.980280
 H         0.921075         2.429932        -3.792787
 H         3.543647         2.382210        -3.380097
 H         3.660874         0.084514        -2.205872
 H         4.312573         1.299528        -1.228769
 H         3.096437        -0.264117        -0.041052
