19
Iteration:   732
 C         0.247247        -0.655438        -0.260278
 C         1.062616         0.599454        -0.637294
 C         0.350226         1.698193        -1.441952
 C         1.175512         2.279069        -2.597924
 O         2.340953         3.141047        -2.148485
 C         2.559716         1.840466        -2.840063
 C         3.341685         0.916417        -1.913000
 C         2.470388         0.333031        -0.803607
 O         2.003925         1.191850         0.366813
 H        -0.675667        -0.380265         0.050815
 H         0.265538        -1.304324        -1.078408
 H         0.684295        -1.320643         0.588759
 H        -0.629633         1.391805        -1.919581
 H         0.012634         2.483730        -0.751693
 H         0.588968         2.790274        -3.400127
 H         2.957600         2.004587        -3.946092
 H         3.793718         0.132094        -2.514166
 H         4.128375         1.558569        -1.517485
 H         2.915632        -0.669677        -0.454124
