19
Iteration:  3819
 C         0.118622        -0.650102        -0.169746
 C         1.070466         0.486340        -0.510702
 C         0.459808         1.404301        -1.685660
 C         1.404880         2.026120        -2.803049
 O         2.101972         3.251132        -2.666301
 C         2.867289         1.924547        -2.791360
 C         3.409510         1.220338        -1.556898
 C         2.546978         0.404305        -0.464838
 O         1.719337         1.247622         0.435044
 H         0.093446        -1.464888        -1.034481
 H         0.250088        -1.194612         0.770011
 H        -0.905325        -0.194561        -0.240475
 H        -0.357709         0.943233        -2.244816
 H        -0.118212         2.344549        -1.186693
 H         0.724013         2.122921        -3.667410
 H         3.473435         1.681371        -3.657818
 H         4.293762         0.608671        -1.808979
 H         3.819055         1.854440        -0.803604
 H         3.094003        -0.319958        -0.030796
