19
Iteration:  2594
 C         0.107686        -0.473688         0.114725
 C         1.077517         0.517349        -0.689731
 C         0.548591         1.119362        -1.965219
 C         1.349081         2.099689        -2.842234
 O         1.987724         3.154710        -2.221472
 C         2.919531         2.086623        -2.607073
 C         3.399661         0.994258        -1.683443
 C         2.514843         0.429811        -0.599887
 O         1.764367         1.419287         0.206185
 H         0.220904        -1.535712        -0.163656
 H         0.345506        -0.533491         1.240370
 H        -0.949535        -0.140150         0.134800
 H         0.215251         0.328782        -2.668700
 H        -0.370799         1.675870        -1.688394
 H         0.954260         2.233700        -3.821040
 H         3.673551         2.544210        -3.308900
 H         3.531827         0.153115        -2.349688
 H         4.367609         1.323823        -1.180884
 H         3.007722        -0.357565        -0.064253
