19
Iteration:  2664charge 0 multiplicity 1
 C         0.197041        -0.539744        -0.026895
 C         1.069901         0.477138        -0.733012
 C         0.341677         1.174130        -1.908814
 C         1.328089         1.982022        -2.802676
 O         2.119874         3.053342        -2.130555
 C         2.851899         1.936228        -2.662777
 C         3.516752         1.059662        -1.619119
 C         2.575363         0.623284        -0.562047
 O         1.653496         1.543864         0.181436
 H        -0.373326        -1.199181        -0.831505
 H         0.846241        -1.286288         0.377618
 H        -0.463800        -0.160471         0.792697
 H        -0.290624         0.680837        -2.516045
 H        -0.268453         2.018087        -1.406000
 H         1.068831         2.308135        -3.814456
 H         3.348524         2.203644        -3.525100
 H         3.808425         0.136981        -2.174684
 H         4.401143         1.648949        -1.286844
 H         3.012791        -0.303413        -0.030136
