19
Iteration:  2450
 C         0.197516        -0.575568        -0.243372
 C         1.022901         0.572888        -0.679893
 C         0.327503         1.405705        -1.828144
 C         1.322363         1.884688        -2.816331
 O         2.078086         3.032195        -2.314899
 C         2.815582         1.813632        -2.710256
 C         3.523149         1.192453        -1.518517
 C         2.512974         0.575911        -0.529221
 O         1.823665         1.398121         0.363438
 H        -0.599313        -0.840251        -0.909554
 H         0.803576        -1.606385         0.003507
 H        -0.335066        -0.232223         0.692825
 H        -0.396080         0.758078        -2.385200
 H        -0.209753         2.243969        -1.445559
 H         1.076662         1.970673        -3.837315
 H         3.405550         2.010251        -3.629834
 H         4.296458         0.489826        -1.804919
 H         3.881110         2.136631        -1.018307
 H         3.020250        -0.104852         0.080924
