19
Iteration:  1285charge 0 multiplicity 1
 C         0.308874        -0.697679         0.043208
 C         0.989564         0.570952        -0.724267
 C         0.304137         1.566259        -1.738714
 C         1.272450         2.261044        -2.676821
 O         2.184238         3.173332        -2.167429
 C         2.759772         1.926245        -2.683204
 C         3.378190         0.877633        -1.755738
 C         2.455349         0.314949        -0.776717
 O         1.929307         1.347989         0.180983
 H        -0.754542        -0.764250        -0.093593
 H         0.789296        -1.640965        -0.093385
 H         0.324243        -0.363323         1.049066
 H        -0.457638         0.996907        -2.389463
 H        -0.130624         2.355602        -1.140834
 H         0.693501         2.711931        -3.512735
 H         3.367270         2.080440        -3.695223
 H         3.545107        -0.008860        -2.472558
 H         4.360783         1.225934        -1.292696
 H         2.866633        -0.612802        -0.217332
