19
Iteration:  2770
 C         0.209589        -0.657638        -0.241440
 C         1.024658         0.524472        -0.696653
 C         0.422261         1.536749        -1.655153
 C         1.340638         1.953231        -2.815778
 O         2.090049         3.144578        -2.596995
 C         2.771543         1.872289        -2.670050
 C         3.417268         1.244579        -1.482112
 C         2.538094         0.484289        -0.469758
 O         1.802720         1.278381         0.402280
 H         0.288388        -1.417418        -1.076247
 H         0.589806        -0.962854         0.682839
 H        -0.901507        -0.562513        -0.184878
 H        -0.558277         0.931865        -2.017941
 H         0.129614         2.430382        -1.100859
 H         0.944412         1.744024        -3.828050
 H         3.411919         1.738127        -3.605400
 H         4.069004         0.468356        -1.881669
 H         4.139041         1.926983        -0.879305
 H         2.948978        -0.406208        -0.013410
