19
Iteration:  4804
 C         0.205010        -0.780315        -0.178653
 C         1.016580         0.533085        -0.701253
 C         0.307048         1.532376        -1.737565
 C         1.373241         1.984267        -2.856677
 O         2.131048         3.129436        -2.421851
 C         2.892762         1.898331        -2.686845
 C         3.429356         1.149319        -1.526896
 C         2.522408         0.536989        -0.565783
 O         1.726518         1.405700         0.370726
 H         0.131575        -1.464995        -1.090101
 H         0.784955        -1.202820         0.689082
 H        -0.729261        -0.753605         0.342265
 H        -0.478354         0.915616        -2.061916
 H         0.024840         2.471587        -1.101003
 H         0.932417         1.937914        -3.831818
 H         3.344738         1.820470        -3.613520
 H         4.025128         0.234344        -1.932530
 H         4.276079         1.617604        -0.980327
 H         3.041689        -0.227682         0.049733
