19
Iteration:  4360charge 0 multiplicity 1
 C         0.131032        -0.396186         0.038027
 C         1.057727         0.518615        -0.793109
 C         0.443726         1.102652        -2.079922
 C         1.358224         2.039562        -2.794017
 O         1.984322         3.054268        -2.004476
 C         2.801793         1.964500        -2.588713
 C         3.499271         1.051450        -1.625604
 C         2.567340         0.486375        -0.547658
 O         1.815691         1.463245         0.111094
 H        -0.399032        -1.058435        -0.635548
 H         0.678636        -0.826148         0.817335
 H        -0.525458         0.340745         0.555648
 H         0.059337         0.308337        -2.747986
 H        -0.627151         1.571932        -1.811918
 H         0.938841         2.615939        -3.645048
 H         3.482974         2.217125        -3.429847
 H         3.990040         0.183727        -2.171633
 H         4.329658         1.735887        -1.193609
 H         2.996476        -0.423242        -0.135080
