19
Iteration:  2164
 C         0.334156        -0.734011        -0.042014
 C         0.944628         0.593979        -0.650173
 C         0.382117         1.327877        -1.857411
 C         1.335851         2.120046        -2.772153
 O         2.278290         3.193801        -2.373247
 C         2.804550         1.798247        -2.724479
 C         3.424552         1.117915        -1.569613
 C         2.432036         0.571785        -0.520178
 O         1.676377         1.373557         0.257809
 H         0.483095        -1.598801        -0.682314
 H         0.784417        -0.958666         0.808030
 H        -0.777395        -0.648179         0.144324
 H        -0.391761         0.765447        -2.379297
 H        -0.204707         2.224451        -1.409365
 H         0.932707         2.259649        -3.774415
 H         3.263658         1.744557        -3.758069
 H         4.099333         0.301335        -1.808271
 H         3.973117         1.866963        -0.973177
 H         2.704767        -0.426135        -0.078651
