19
Iteration:   323charge 0 multiplicity 1
 C         0.179450        -0.343050         0.132982
 C         0.998322         0.427984        -0.822760
 C         0.366838         1.427253        -1.691380
 C         1.212141         2.264142        -2.658406
 O         2.152133         3.117571        -1.975421
 C         2.746026         2.003452        -2.721695
 C         3.431427         0.964924        -1.852712
 C         2.525297         0.256475        -0.901274
 O         1.991656         1.146055         0.103093
 H         0.689354        -1.154789         0.553762
 H         0.019936         0.338084         1.023943
 H        -0.763079        -0.539335        -0.170137
 H        -0.267212         0.810265        -2.303173
 H        -0.335571         2.112993        -1.144499
 H         0.586882         2.842749        -3.495508
 H         3.309498         2.447157        -3.658770
 H         3.975726         0.215072        -2.442543
 H         4.207091         1.530182        -1.216142
 H         2.806641        -0.697358        -0.398249
