19
Iteration:  1111charge 0 multiplicity 1
 C         0.157334        -0.525163        -0.222137
 C         1.124564         0.622408        -0.629439
 C         0.334360         1.492982        -1.571760
 C         1.205232         2.247582        -2.573139
 O         2.223422         3.128339        -2.139451
 C         2.633610         1.889106        -2.881405
 C         3.372680         0.899009        -1.884620
 C         2.543502         0.377392        -0.688629
 O         2.040017         1.229497         0.349727
 H         0.565747        -1.240116         0.496418
 H        -0.776953        -0.111468         0.201648
 H        -0.192776        -1.050246        -1.215102
 H        -0.307104         0.899321        -2.203933
 H        -0.474537         2.093389        -1.061782
 H         0.613359         2.576972        -3.504208
 H         3.093224         2.197881        -3.838235
 H         3.822432         0.095365        -2.451117
 H         4.159398         1.489293        -1.445631
 H         2.878433        -0.566250        -0.304603
