19
Iteration:  2922charge 0 multiplicity 1
 C         0.089298        -0.352245        -0.000796
 C         1.106823         0.440731        -0.763614
 C         0.450457         1.021320        -1.993078
 C         1.300009         2.015010        -2.728926
 O         1.954272         3.193805        -2.100365
 C         2.836939         2.046318        -2.574920
 C         3.468502         0.972398        -1.642474
 C         2.576984         0.456850        -0.577944
 O         1.849055         1.476340         0.134625
 H        -0.025830        -1.358638        -0.425716
 H         0.470955        -0.591615         0.925089
 H        -0.813894         0.304015         0.079320
 H         0.443991         0.297954        -2.738996
 H        -0.557554         1.301664        -1.844045
 H         0.824199         2.472167        -3.716069
 H         3.490360         2.460938        -3.448092
 H         4.021800         0.196339        -2.221488
 H         4.312066         1.415234        -1.202597
 H         3.064309        -0.269903         0.041721
