19
Iteration:  4096charge 0 multiplicity 1
 C         0.188762        -0.730252        -0.269449
 C         0.974042         0.539057        -0.627153
 C         0.410693         1.567290        -1.632908
 C         1.389812         1.880611        -2.828347
 O         2.073303         3.183816        -2.692834
 C         2.866168         1.897669        -2.684626
 C         3.492895         1.273865        -1.499678
 C         2.501420         0.572883        -0.458058
 O         1.734983         1.201474         0.483905
 H        -0.187252        -1.274783        -1.194914
 H         0.931686        -1.364287         0.385201
 H        -0.779580        -0.644509         0.303149
 H        -0.513549         1.311690        -2.024624
 H         0.190591         2.640305        -1.026556
 H         0.978896         1.534622        -3.799359
 H         3.414429         1.859283        -3.600741
 H         4.014656         0.447163        -2.120604
 H         4.224076         1.815208        -0.871822
 H         2.939925        -0.350195        -0.095142
