19
Iteration:  4077
 C         0.361565        -0.677885        -0.271479
 C         1.048288         0.555879        -0.685395
 C         0.434105         1.576079        -1.635062
 C         1.310562         1.918697        -2.771281
 O         2.141024         3.066845        -2.566287
 C         2.778830         1.836002        -2.704559
 C         3.486999         1.245486        -1.468730
 C         2.476361         0.525331        -0.570444
 O         1.581895         1.270698         0.394556
 H        -0.132919        -1.243865        -1.017968
 H         1.008285        -1.313991         0.399917
 H        -0.442893        -0.218237         0.440585
 H        -0.565837         1.331528        -2.066707
 H         0.340146         2.462720        -1.000975
 H         0.887409         2.072261        -3.724970
 H         3.363231         1.863299        -3.664702
 H         4.152843         0.427487        -1.707630
 H         4.019694         1.973427        -0.832060
 H         3.070077        -0.365626        -0.189539
