19
Iteration:  3357
 C         0.158063        -0.551080        -0.349326
 C         1.135201         0.569860        -0.547895
 C         0.438597         1.650002        -1.612199
 C         1.295625         1.888257        -2.887411
 O         2.249447         3.116819        -2.877072
 C         2.733465         1.810242        -2.733443
 C         3.251686         1.542777        -1.272242
 C         2.582010         0.394004        -0.555345
 O         1.809414         0.946131         0.597492
 H        -0.020374        -1.059373        -1.240531
 H         0.557256        -1.124324         0.361540
 H        -0.806985        -0.158146         0.009249
 H        -0.606278         1.272109        -1.872814
 H         0.412444         2.522974        -1.016897
 H         0.827558         1.497419        -3.786653
 H         3.313482         1.410220        -3.576207
 H         4.346939         1.466421        -1.296059
 H         2.928458         2.347221        -0.619342
 H         3.014412        -0.693273        -0.390972
