19
Iteration:   338charge 0 multiplicity 1
 C         0.123440        -0.404817         0.114096
 C         1.087124         0.452886        -0.751603
 C         0.377621         1.472090        -1.695496
 C         1.260510         2.199163        -2.602557
 O         2.157356         3.171688        -2.028713
 C         2.701740         2.036720        -2.703654
 C         3.414507         0.947116        -1.931212
 C         2.599426         0.273691        -0.792157
 O         1.906856         1.167850         0.079424
 H         0.590105        -1.353405         0.410389
 H        -0.139898         0.161228         0.988799
 H        -0.826897        -0.783622        -0.539865
 H        -0.610160         1.144303        -2.234814
 H         0.135655         2.185279        -0.865114
 H         0.835316         2.547646        -3.500414
 H         3.200980         2.189984        -3.582334
 H         3.653723         0.172142        -2.701110
 H         4.295309         1.311701        -1.476989
 H         3.108656        -0.585268        -0.347377
