19
Iteration:  1182
 C         0.162947        -0.457981         0.159439
 C         1.052564         0.541706        -0.698256
 C         0.305718         1.457276        -1.815706
 C         1.345671         2.167921        -2.666942
 O         2.098467         3.204074        -1.951751
 C         2.791767         2.056163        -2.635730
 C         3.336168         0.890127        -1.946207
 C         2.514796         0.257652        -0.808163
 O         2.014172         1.230093         0.093979
 H         0.565173        -1.508309         0.031775
 H         0.285681        -0.283562         1.277483
 H        -0.844461        -0.384694        -0.089411
 H        -0.410157         0.789562        -2.486581
 H        -0.465422         2.185709        -1.507476
 H         0.989564         2.524042        -3.598002
 H         3.271020         2.320018        -3.543702
 H         3.437378         0.102744        -2.694919
 H         4.358618         1.228518        -1.640835
 H         2.938946        -0.723672        -0.466141
