19
Iteration:  4555charge 0 multiplicity 1
 C         0.168353        -0.459818        -0.378913
 C         1.138098         0.597439        -0.657445
 C         0.490855         1.585754        -1.559157
 C         1.316139         1.868967        -2.772185
 O         2.040785         3.092450        -2.746185
 C         2.782814         1.811101        -2.658120
 C         3.436369         1.408154        -1.374720
 C         2.578660         0.416831        -0.567983
 O         1.740026         1.041406         0.484669
 H         0.657071        -1.416632        -0.800214
 H         0.125244        -0.839500         0.697137
 H        -0.870269        -0.299464        -0.774119
 H        -0.645752         1.417124        -1.945155
 H         0.392410         2.423964        -0.944305
 H         0.768490         1.613543        -3.757879
 H         3.410082         1.675668        -3.582188
 H         4.388320         1.002172        -1.404929
 H         3.434196         2.277589        -0.765971
 H         2.947603        -0.597471        -0.310764
