19
Iteration:  1106
 C         0.171053        -0.486454        -0.249076
 C         1.101577         0.583955        -0.610530
 C         0.354515         1.524856        -1.603536
 C         1.236919         2.240823        -2.570415
 O         2.177469         3.137792        -2.154410
 C         2.623094         1.881522        -2.852109
 C         3.337001         0.946638        -1.900607
 C         2.548456         0.339631        -0.687999
 O         2.047217         1.211878         0.372803
 H         0.644913        -1.164827         0.531127
 H        -0.852470        -0.029687        -0.024436
 H         0.007585        -1.081076        -1.079126
 H        -0.366756         0.855262        -2.164884
 H        -0.201364         2.260362        -1.026911
 H         0.672650         2.423415        -3.439775
 H         3.054664         2.136602        -3.888458
 H         3.754356         0.021587        -2.467442
 H         4.298791         1.396808        -1.419012
 H         2.968111        -0.634228        -0.200692
