19
Iteration:  1475charge 0 multiplicity 1
 C         0.242645        -0.534817         0.095908
 C         0.992175         0.601460        -0.683369
 C         0.393293         1.251741        -1.906317
 C         1.340646         2.092149        -2.738759
 O         2.187963         3.146221        -2.050151
 C         2.761666         2.033813        -2.645331
 C         3.387635         0.922593        -1.834996
 C         2.470315         0.413054        -0.654011
 O         1.819960         1.448364         0.173746
 H         0.635675        -1.509447        -0.322330
 H         0.518894        -0.538571         1.118016
 H        -0.841309        -0.609133        -0.021842
 H         0.036394         0.508756        -2.663136
 H        -0.540872         1.852118        -1.602742
 H         0.879422         2.381214        -3.763090
 H         3.475767         2.303937        -3.575802
 H         3.634452         0.083311        -2.546256
 H         4.331033         1.332242        -1.414678
 H         2.720784        -0.517153        -0.162738
