19
Iteration:   258
 C         0.113110        -0.389556        -0.006010
 C         1.113110         0.465357        -0.706107
 C         0.404099         1.390147        -1.708869
 C         1.242972         2.206180        -2.640433
 O         2.187947         3.218158        -1.954571
 C         2.672872         2.044350        -2.670475
 C         3.279520         0.835608        -2.040024
 C         2.603897         0.336905        -0.702084
 O         2.018717         1.195355         0.178957
 H         0.533761        -0.764018         0.881834
 H        -0.824598         0.243224         0.250015
 H        -0.169168        -1.299316        -0.677263
 H        -0.412372         0.918403        -2.334754
 H        -0.190244         2.131543        -1.051008
 H         0.663426         2.687008        -3.527102
 H         3.257699         2.395680        -3.643725
 H         3.095541         0.107621        -2.849751
 H         4.387251         0.897142        -2.107284
 H         3.246466        -0.454643        -0.218917
