19
Iteration:  4948charge 0 multiplicity 1
 C         0.120596        -0.473124        -0.031916
 C         1.018320         0.509135        -0.679803
 C         0.426192         1.115292        -1.969031
 C         1.377738         2.007380        -2.668947
 O         2.157791         3.113455        -2.124773
 C         2.796416         2.044019        -2.721979
 C         3.511800         1.076033        -1.693432
 C         2.525432         0.550550        -0.585081
 O         1.728907         1.426581         0.219440
 H        -0.141876        -1.417077        -0.618303
 H         0.254416        -0.751994         0.987368
 H        -0.873220        -0.123660         0.129292
 H         0.403163         0.147386        -2.569514
 H        -0.598798         1.596739        -1.846331
 H         1.003524         2.259974        -3.634163
 H         3.254085         2.324768        -3.663612
 H         3.949819         0.215513        -2.249474
 H         4.415228         1.568819        -1.326855
 H         2.866494        -0.254681         0.097361
