19
Iteration:  4363
 C         0.130922        -0.420807         0.065773
 C         1.033307         0.522578        -0.782485
 C         0.417386         1.107579        -2.104029
 C         1.377122         2.035476        -2.761717
 O         2.000228         3.069358        -2.031567
 C         2.816019         1.981457        -2.618566
 C         3.501724         1.054459        -1.601940
 C         2.552256         0.492944        -0.559430
 O         1.808869         1.444606         0.107740
 H        -0.398216        -1.065230        -0.596416
 H         0.712301        -0.911787         0.813929
 H        -0.528992         0.338341         0.627036
 H         0.047194         0.318839        -2.664035
 H        -0.602645         1.621640        -1.843639
 H         0.948179         2.522724        -3.612032
 H         3.533756         2.298333        -3.424096
 H         3.997437         0.201642        -2.221900
 H         4.331549         1.703093        -1.147657
 H         3.101516        -0.385449        -0.186431
