19
Iteration:  4267charge 0 multiplicity 1
 C         0.264541        -0.601443        -0.031494
 C         1.057284         0.487695        -0.772290
 C         0.319137         1.338469        -1.943203
 C         1.349996         2.074093        -2.722152
 O         2.166118         3.128643        -2.230595
 C         2.805939         1.886769        -2.597042
 C         3.464371         1.061724        -1.534639
 C         2.519014         0.527322        -0.613759
 O         1.683589         1.413089         0.149852
 H         0.320037        -1.675901        -0.356768
 H         0.750189        -0.606727         0.995880
 H        -0.754961        -0.204667         0.240252
 H        -0.218541         0.532501        -2.643596
 H        -0.447561         1.877943        -1.529189
 H         0.954109         2.447652        -3.700579
 H         3.450417         1.935203        -3.503148
 H         4.081244         0.401253        -2.068865
 H         4.037669         1.782977        -1.039130
 H         2.902242        -0.300091         0.079316
