19
Iteration:  3552charge 0 multiplicity 1
 C         0.079689        -0.403495        -0.021407
 C         1.058181         0.486762        -0.768672
 C         0.375694         1.130312        -1.892162
 C         1.304949         1.990447        -2.814595
 O         2.076608         3.059396        -2.109517
 C         2.839585         1.994070        -2.590691
 C         3.530975         1.129820        -1.581930
 C         2.587892         0.490711        -0.610843
 O         1.791166         1.434615         0.110147
 H        -0.148061        -1.286499        -0.720240
 H         0.471080        -0.828365         0.900769
 H        -0.814076         0.287572         0.238329
 H        -0.066432         0.276854        -2.517575
 H        -0.335800         1.736040        -1.454308
 H         0.944058         2.321166        -3.776058
 H         3.350936         2.091419        -3.548605
 H         4.116084         0.379455        -2.110089
 H         4.241524         1.743698        -0.968217
 H         3.068301        -0.297990        -0.078349
