19
Iteration:  3547charge 0 multiplicity 1
 C         0.093468        -0.389087        -0.026453
 C         1.070594         0.509905        -0.720617
 C         0.358406         1.126354        -1.882304
 C         1.302316         1.958385        -2.801786
 O         2.084834         3.079139        -2.154860
 C         2.833911         1.992197        -2.607165
 C         3.545760         1.160668        -1.578970
 C         2.575151         0.499509        -0.626425
 O         1.769982         1.374776         0.140752
 H        -0.143385        -1.162666        -0.718496
 H         0.420652        -0.819759         0.937192
 H        -0.776871         0.167027         0.127304
 H        -0.022198         0.401898        -2.551322
 H        -0.453178         1.894949        -1.432400
 H         1.074015         2.281263        -3.853423
 H         3.412298         2.180667        -3.544899
 H         4.152478         0.440044        -2.185750
 H         4.242616         1.623381        -0.849012
 H         3.095417        -0.415338        -0.165480
