19
Iteration:  3679
 C         0.110150        -0.574840        -0.072356
 C         1.025899         0.586013        -0.632466
 C         0.409986         1.421281        -1.858576
 C         1.384852         1.930847        -2.901332
 O         2.071159         3.071631        -2.311063
 C         2.799393         1.937937        -2.731961
 C         3.559742         1.189899        -1.495943
 C         2.499962         0.431023        -0.582335
 O         1.793517         1.321806         0.314557
 H         0.090969        -1.362882        -0.857176
 H         0.507845        -0.946416         0.823153
 H        -0.874671        -0.240588         0.016370
 H        -0.482923         0.790879        -2.230390
 H        -0.141659         2.149529        -1.501491
 H         0.929108         2.132101        -3.933603
 H         3.323531         2.229625        -3.664336
 H         4.460041         0.683042        -1.883800
 H         3.918101         1.928155        -0.762836
 H         2.991302        -0.577370        -0.149253
