19
Iteration:  1128
 C         0.153882        -0.579577        -0.087440
 C         1.028995         0.556954        -0.604037
 C         0.338713         1.475440        -1.655584
 C         1.175347         2.296290        -2.602988
 O         2.348056         3.082750        -2.118036
 C         2.612604         1.893971        -2.721370
 C         3.405184         0.997179        -1.890162
 C         2.528291         0.408998        -0.813261
 O         1.969439         1.268365         0.231212
 H         0.855121        -1.421063         0.160607
 H        -0.531983        -0.239214         0.739192
 H        -0.457392        -0.909682        -0.824771
 H        -0.186737         0.668221        -2.271018
 H        -0.362023         2.118829        -1.155767
 H         0.634468         2.859733        -3.296378
 H         2.993943         1.875109        -3.780928
 H         3.797956         0.057669        -2.426090
 H         4.352284         1.498279        -1.486774
 H         2.955950        -0.564464        -0.352325
