19
Iteration:  4533
 C         0.051768        -0.686827        -0.360712
 C         1.040477         0.531502        -0.606635
 C         0.433484         1.631186        -1.562184
 C         1.336749         1.876835        -2.823208
 O         2.148186         3.083435        -2.671024
 C         2.803557         1.794727        -2.701559
 C         3.416058         1.498154        -1.393719
 C         2.530061         0.505671        -0.594509
 O         1.892269         1.109498         0.478826
 H         0.409994        -1.748932        -0.574932
 H         0.035885        -0.725028         0.786842
 H        -0.968943        -0.398987        -0.731816
 H        -0.594610         1.247864        -2.048461
 H         0.179765         2.573445        -1.159326
 H         0.839525         1.876953        -3.856819
 H         3.415307         1.485286        -3.582534
 H         4.384624         1.091411        -1.482985
 H         3.425033         2.350407        -0.764797
 H         2.923879        -0.513483        -0.392041
