19
Iteration:  1538charge 0 multiplicity 1
 C         0.044854        -0.451548         0.013324
 C         1.071330         0.514454        -0.651688
 C         0.406703         1.220980        -1.866754
 C         1.292250         2.108681        -2.685489
 O         2.070039         3.088444        -2.146495
 C         2.819889         1.975815        -2.742272
 C         3.495017         1.100826        -1.736401
 C         2.548221         0.452923        -0.702595
 O         1.903885         1.332356         0.262209
 H        -0.682276        -0.469303        -0.774311
 H         0.312629        -1.417990         0.313942
 H        -0.353713        -0.002840         1.038286
 H         0.065493         0.432590        -2.617793
 H        -0.495593         1.625489        -1.572046
 H         0.888509         2.341141        -3.669688
 H         3.348462         2.363219        -3.593960
 H         3.932008         0.284232        -2.278555
 H         4.316210         1.697950        -1.357595
 H         2.987056        -0.502404        -0.258199
