19
Iteration:   993
 C         0.065177        -0.459944        -0.211980
 C         1.132073         0.581876        -0.580127
 C         0.405534         1.582180        -1.461359
 C         1.161305         2.226261        -2.573891
 O         2.156256         3.210451        -2.297877
 C         2.683498         2.038637        -2.805314
 C         3.349989         0.962319        -1.882534
 C         2.570069         0.240875        -0.835350
 O         2.103632         1.007322         0.390493
 H        -0.901335        -0.065492        -0.137988
 H         0.107176        -1.271899        -0.899725
 H         0.251856        -0.949284         0.870216
 H        -0.587396         1.045532        -1.814647
 H        -0.058111         2.430429        -0.836907
 H         0.605495         2.473969        -3.524414
 H         3.106197         2.071938        -3.740829
 H         3.748392         0.186611        -2.557017
 H         4.255021         1.418969        -1.363287
 H         2.953631        -0.745844        -0.652723
