19
Iteration:  3699
 C         0.161439        -0.569701        -0.109036
 C         1.050581         0.518633        -0.678216
 C         0.449991         1.397133        -1.758038
 C         1.427090         1.981189        -2.879205
 O         2.091146         3.163037        -2.532131
 C         2.853753         1.952222        -2.678340
 C         3.354904         1.236781        -1.517257
 C         2.469032         0.500967        -0.543652
 O         1.768236         1.191396         0.453201
 H        -0.029194        -1.378130        -0.861348
 H         0.749396        -1.036547         0.725608
 H        -0.800537        -0.213355         0.246115
 H        -0.378796         0.815662        -2.358972
 H        -0.085734         2.340096        -1.268166
 H         1.051095         2.054415        -3.936615
 H         3.563789         1.829074        -3.517271
 H         3.964959         0.404321        -1.932048
 H         4.094185         1.879853        -1.066836
 H         2.952877        -0.422963        -0.190811
