19
Iteration:  2396charge 0 multiplicity 1
 C         0.067714        -0.553156         0.130633
 C         0.998018         0.471172        -0.626494
 C         0.479293         1.241185        -1.897328
 C         1.443313         2.070957        -2.836128
 O         2.041599         3.247463        -2.469401
 C         2.902865         2.015219        -2.686735
 C         3.492832         1.190670        -1.547601
 C         2.468688         0.375536        -0.590060
 O         1.746935         1.283221         0.268888
 H        -0.397071        -1.283065        -0.479521
 H         0.698122        -1.130367         0.968771
 H        -0.864950        -0.158290         0.540511
 H         0.134094         0.515159        -2.569149
 H        -0.345184         1.874168        -1.525479
 H         0.999977         2.185967        -3.760862
 H         3.676545         2.162568        -3.454295
 H         4.014509         0.404257        -2.096734
 H         4.321391         1.826511        -1.083131
 H         2.945239        -0.471734        -0.081681
