19
Iteration:  3027
 C         0.136951        -0.576147        -0.188289
 C         1.066854         0.501435        -0.698316
 C         0.401382         1.386730        -1.738984
 C         1.345565         1.948854        -2.800840
 O         2.114199         3.135369        -2.438846
 C         2.770631         1.888179        -2.657851
 C         3.533174         1.259299        -1.513925
 C         2.543738         0.511300        -0.579568
 O         1.752323         1.288825         0.344680
 H        -0.104686        -1.325252        -0.922811
 H         0.510943        -0.872109         0.860548
 H        -0.898109        -0.123421         0.006228
 H        -0.199816         0.592740        -2.286756
 H        -0.282749         2.088765        -1.254585
 H         0.971977         1.853346        -3.786103
 H         3.289578         1.868773        -3.621340
 H         4.183959         0.491924        -1.880769
 H         4.067448         2.088182        -0.883167
 H         3.054792        -0.335157         0.017393
