19
Iteration:  4632
 C         0.255648        -0.665194        -0.462894
 C         1.063205         0.664737        -0.701174
 C         0.338771         1.663513        -1.568363
 C         1.220793         1.954815        -2.874484
 O         2.239355         3.030628        -2.687956
 C         2.677069         1.659962        -2.626438
 C         3.407590         1.449806        -1.333317
 C         2.590265         0.516329        -0.467596
 O         1.791339         1.102830         0.497958
 H        -0.490744        -0.964502        -1.242145
 H         0.960417        -1.455005        -0.315190
 H        -0.278507        -0.383554         0.372374
 H        -0.712252         1.180584        -1.821454
 H         0.384590         2.541620        -1.031610
 H         0.786311         1.904356        -3.936801
 H         3.297998         1.358637        -3.522383
 H         4.287175         0.885747        -1.503182
 H         3.651793         2.405098        -0.929503
 H         3.019474        -0.394858        -0.010309
