19
Iteration:  1150charge 0 multiplicity 1
 C         0.272841        -0.553261         0.080089
 C         0.993516         0.459857        -0.769956
 C         0.311473         1.478021        -1.690985
 C         1.310941         2.278885        -2.561570
 O         2.270198         3.218457        -2.060976
 C         2.739400         1.976648        -2.795512
 C         3.315493         0.873399        -1.918797
 C         2.485464         0.334697        -0.768460
 O         1.862373         1.267274         0.142071
 H         0.889146        -1.495047         0.134917
 H         0.134053         0.001817         1.052971
 H        -0.643681        -0.827624        -0.222761
 H        -0.254371         0.807484        -2.418106
 H        -0.259564         2.129449        -1.052207
 H         0.749488         2.743929        -3.309097
 H         3.256810         2.132414        -3.765094
 H         3.875467        -0.035464        -2.281596
 H         4.195369         1.418793        -1.414323
 H         2.826522        -0.673931        -0.309781
