19
Iteration:   266
 C         0.102121        -0.369554         0.019302
 C         1.126753         0.445781        -0.706186
 C         0.402151         1.371581        -1.781129
 C         1.279004         2.237658        -2.598294
 O         2.121786         3.214179        -1.976755
 C         2.682353         2.076249        -2.686361
 C         3.267426         0.835582        -2.050914
 C         2.572591         0.268801        -0.797117
 O         2.066227         1.239599         0.281995
 H         0.528837        -0.920752         0.921942
 H        -0.696735         0.255532         0.323133
 H        -0.236635        -1.050031        -0.605556
 H        -0.236628         0.811978        -2.405661
 H        -0.236760         2.057641        -1.220571
 H         0.736799         2.721328        -3.498734
 H         3.387775         2.223156        -3.551661
 H         3.141400         0.076305        -2.824518
 H         4.370345         0.954076        -1.781527
 H         3.091811        -0.632927        -0.408489
