19
Iteration:  2000
 C         0.254109        -0.551443        -0.113334
 C         1.060052         0.607591        -0.688141
 C         0.482846         1.225653        -2.001022
 C         1.349297         1.994372        -2.873013
 O         2.061535         3.126301        -2.226157
 C         2.807128         1.973440        -2.716248
 C         3.327226         0.963058        -1.615770
 C         2.555289         0.566775        -0.398258
 O         1.745421         1.490775         0.381619
 H         0.193233        -1.474336        -0.773763
 H         0.743700        -0.937802         0.763776
 H        -0.800093        -0.225099         0.115372
 H         0.166378         0.418439        -2.544583
 H        -0.473116         1.789218        -1.736634
 H         0.938778         2.213815        -3.832017
 H         3.479262         2.109761        -3.615923
 H         3.504191         0.049776        -2.223811
 H         4.335308         1.339720        -1.327864
 H         3.002523        -0.346691         0.178683
