19
Iteration:   396charge 0 multiplicity 1
 C         0.302845        -0.595985        -0.180987
 C         1.093897         0.641048        -0.663527
 C         0.323899         1.610404        -1.610175
 C         1.140939         2.312670        -2.610841
 O         2.361583         3.158992        -2.161009
 C         2.546329         1.828903        -2.790993
 C         3.280354         0.886365        -1.921499
 C         2.528086         0.420363        -0.741986
 O         1.997945         1.143914         0.407932
 H         0.681746        -0.813522         0.975938
 H        -0.809992        -0.474695        -0.188563
 H         0.350472        -1.436002        -0.964908
 H        -0.390584         0.923401        -2.233068
 H        -0.404350         2.177990        -1.012190
 H         0.639405         2.871592        -3.434150
 H         3.029145         1.923431        -3.778294
 H         3.758136         0.046147        -2.454071
 H         4.172830         1.470165        -1.567773
 H         2.675368        -0.629440        -0.430398
