19
Iteration:  1807charge 0 multiplicity 1
 C         0.240442        -0.563175        -0.052836
 C         1.091847         0.564085        -0.662238
 C         0.360186         1.206902        -1.980216
 C         1.316756         1.967477        -2.876931
 O         2.108200         3.104719        -2.185327
 C         2.793278         1.964208        -2.623156
 C         3.442884         0.998537        -1.651697
 C         2.562307         0.556699        -0.467158
 O         1.718573         1.541455         0.234728
 H        -0.086338        -1.147621        -0.861810
 H         0.882887        -1.127848         0.732704
 H        -0.632038        -0.354354         0.490677
 H        -0.011410         0.364679        -2.596081
 H        -0.520159         1.709312        -1.712619
 H         0.883588         2.328109        -3.923226
 H         3.582227         2.177443        -3.428759
 H         3.872268         0.118758        -2.119351
 H         4.211871         1.607886        -1.170598
 H         2.929305        -0.192016         0.184898
