19
Iteration:  3076charge 0 multiplicity 1
 C         0.242945        -0.648118        -0.266879
 C         1.108012         0.587305        -0.638253
 C         0.375351         1.553435        -1.684405
 C         1.335174         1.935744        -2.814016
 O         2.126120         3.166841        -2.749419
 C         2.747582         1.843743        -2.637817
 C         3.393818         1.289889        -1.375174
 C         2.549106         0.434108        -0.546847
 O         1.768241         1.172966         0.518356
 H         0.129718        -1.242123        -1.197152
 H         0.581716        -1.215679         0.570253
 H        -0.774600        -0.326523        -0.082488
 H        -0.545947         1.079730        -2.009855
 H         0.147414         2.639897        -1.240756
 H         0.887492         1.855161        -3.841897
 H         3.432753         1.686775        -3.493834
 H         4.294431         0.709643        -1.745381
 H         3.697806         2.105087        -0.782262
 H         2.852416        -0.535719        -0.309569
