19
Iteration:  2642
 C         0.270357        -0.488635        -0.031204
 C         1.086181         0.523180        -0.736503
 C         0.428642         1.191378        -1.919383
 C         1.293518         2.109704        -2.768425
 O         2.117152         2.971658        -2.007394
 C         2.814830         1.863278        -2.735758
 C         3.452426         1.016625        -1.661062
 C         2.516622         0.593089        -0.499175
 O         1.662354         1.541188         0.074250
 H        -0.263343        -1.268502        -0.756652
 H         0.789613        -1.141801         0.612204
 H        -0.457480         0.053321         0.626903
 H         0.346162         0.426669        -2.617202
 H        -0.639012         1.529393        -1.747966
 H         0.909268         2.597161        -3.698931
 H         3.295493         2.208530        -3.600595
 H         3.970975         0.108110        -2.056000
 H         4.150264         1.785566        -1.251196
 H         3.106636        -0.054799         0.252397
