19
Iteration:  1949charge 0 multiplicity 1
 C         0.237335        -0.640196        -0.082016
 C         1.012963         0.468556        -0.714389
 C         0.340880         1.376729        -1.766291
 C         1.319635         2.053923        -2.761383
 O         2.207654         3.098125        -2.386312
 C         2.788089         1.797223        -2.651321
 C         3.469802         1.217483        -1.494496
 C         2.554042         0.551611        -0.555857
 O         1.706310         1.392496         0.163879
 H         0.364748        -1.591176        -0.555674
 H         0.408331        -0.656208         1.101683
 H        -0.826674        -0.473636        -0.121564
 H        -0.465621         0.793253        -2.444192
 H        -0.262114         2.065106        -1.183030
 H         0.992974         2.124189        -3.806282
 H         3.319377         1.771050        -3.563571
 H         4.200240         0.508844        -1.890605
 H         3.978493         2.078945        -1.046149
 H         3.030717        -0.223067        -0.017408
