19
Iteration:  4902charge 0 multiplicity 1
 C         0.156840        -0.292252         0.057202
 C         1.070422         0.541338        -0.777278
 C         0.433789         1.070314        -2.111434
 C         1.430080         2.006843        -2.842080
 O         1.859133         3.077394        -1.954851
 C         2.848219         2.089299        -2.461499
 C         3.505125         0.949833        -1.658488
 C         2.533794         0.427884        -0.610315
 O         1.844236         1.473005         0.054599
 H        -0.161207        -1.276491        -0.395465
 H         0.709334        -0.440423         1.003137
 H        -0.729085         0.052364         0.535029
 H         0.173470         0.174334        -2.826742
 H        -0.526514         1.601808        -1.807190
 H         1.095709         2.322425        -3.746254
 H         3.463988         2.497083        -3.210222
 H         3.674662         0.210250        -2.431561
 H         4.489584         1.149484        -1.261822
 H         2.848576        -0.460264         0.006129
