19
Iteration:   593charge 0 multiplicity 1
 C         0.167353        -0.555002        -0.096805
 C         1.083107         0.575170        -0.662962
 C         0.359892         1.396009        -1.687880
 C         1.208427         2.273705        -2.468304
 O         2.357560         3.133121        -1.975269
 C         2.653624         1.994902        -2.740035
 C         3.245995         0.862751        -2.040053
 C         2.533250         0.418832        -0.752087
 O         1.994727         1.308633         0.187787
 H        -0.641227         0.014947         0.466106
 H        -0.207146        -1.238436        -0.840078
 H         0.618335        -1.100196         0.740682
 H        -0.049217         0.586144        -2.465658
 H        -0.449226         2.059637        -1.187589
 H         0.776015         2.693342        -3.362721
 H         2.997860         2.052863        -3.737014
 H         3.048712        -0.068836        -2.684912
 H         4.333634         0.997776        -1.979556
 H         2.968743        -0.504883        -0.347164
