19
Iteration:  4362
 C         0.131345        -0.416283         0.057606
 C         1.040529         0.521423        -0.786414
 C         0.426946         1.104598        -2.098995
 C         1.372019         2.036363        -2.771642
 O         1.994248         3.064497        -2.023011
 C         2.810437         1.975505        -2.608641
 C         3.500125         1.053215        -1.609017
 C         2.557235         0.490884        -0.553450
 O         1.811739         1.450899         0.108330
 H        -0.390285        -1.053630        -0.605445
 H         0.688282        -0.868883         0.798972
 H        -0.529645         0.350830         0.611029
 H         0.051705         0.332446        -2.677154
 H        -0.631616         1.608823        -1.830763
 H         0.946651         2.558405        -3.612237
 H         3.525381         2.271041        -3.430157
 H         4.000970         0.183535        -2.214435
 H         4.341217         1.726581        -1.159533
 H         3.070838        -0.394628        -0.183482
