19
Iteration:  2464charge 0 multiplicity 1
 C         0.199746        -0.662175        -0.213859
 C         1.033948         0.584530        -0.689760
 C         0.377325         1.351808        -1.779502
 C         1.346436         1.890514        -2.879575
 O         2.136403         3.041267        -2.355056
 C         2.794629         1.880957        -2.654433
 C         3.440270         1.196197        -1.527693
 C         2.513763         0.600622        -0.508151
 O         1.767610         1.485626         0.349262
 H        -0.486083        -0.994456        -1.051380
 H         1.024429        -1.461145        -0.057479
 H        -0.425651        -0.634471         0.700281
 H        -0.483452         0.864725        -2.079183
 H         0.089956         2.345263        -1.243944
 H         0.827583         2.126252        -3.786315
 H         3.454182         1.837667        -3.537643
 H         4.023221         0.322461        -1.954885
 H         4.334508         1.714482        -1.030620
 H         2.737894        -0.503319        -0.216831
