19
Iteration:  2900charge 0 multiplicity 1
 C         0.099847        -0.418825         0.138958
 C         1.036639         0.539800        -0.646131
 C         0.535638         1.119977        -2.015612
 C         1.400488         1.993646        -2.894255
 O         1.958039         3.211971        -2.178485
 C         2.852436         2.086228        -2.616924
 C         3.427426         1.166453        -1.614569
 C         2.511503         0.371881        -0.635995
 O         1.813245         1.285069         0.237897
 H         0.087728        -1.403062        -0.335616
 H         0.460399        -0.645110         1.091541
 H        -0.886908         0.110685         0.194246
 H         0.263146         0.308211        -2.612733
 H        -0.358821         1.636865        -1.871118
 H         1.098980         2.168346        -4.040739
 H         3.524748         2.369958        -3.532000
 H         3.759445         0.390043        -2.362383
 H         4.377910         1.418412        -1.264957
 H         2.995757        -0.462047        -0.183272
