19
Iteration:  4255
 C         0.253770        -0.641753        -0.091960
 C         0.994144         0.528273        -0.763861
 C         0.304944         1.316421        -1.822306
 C         1.321329         2.058471        -2.773240
 O         2.198965         3.056398        -2.212784
 C         2.806590         1.842712        -2.687894
 C         3.487296         1.183700        -1.540738
 C         2.501529         0.535699        -0.517962
 O         1.742408         1.461437         0.158549
 H         0.154395        -1.393897        -0.897916
 H         0.676226        -1.028830         0.831359
 H        -0.874729        -0.380096         0.019286
 H        -0.337227         0.606109        -2.522838
 H        -0.326515         2.036779        -1.406673
 H         0.963339         2.216738        -3.806110
 H         3.430482         2.028157        -3.610144
 H         4.157664         0.389722        -1.844647
 H         4.110658         1.833566        -0.990998
 H         2.984400        -0.321406         0.084042
