19
Iteration:  3463charge 0 multiplicity 1
 C         0.239961        -0.726253        -0.383498
 C         1.022705         0.549472        -0.649575
 C         0.339530         1.628657        -1.558517
 C         1.318559         1.925469        -2.751024
 O         2.194071         3.014106        -2.547446
 C         2.802900         1.697419        -2.731903
 C         3.484882         1.370577        -1.486890
 C         2.571600         0.609630        -0.557315
 O         1.679692         1.278328         0.418139
 H         0.015272        -1.311038        -1.370689
 H         0.691836        -1.493127         0.294583
 H        -0.720309        -0.409442         0.171212
 H        -0.723701         1.346809        -1.872264
 H         0.209000         2.480496        -0.947477
 H         0.842575         2.089385        -3.688814
 H         3.261579         1.454901        -3.689931
 H         4.314163         0.729792        -1.711458
 H         3.873288         2.248571        -0.916487
 H         2.931053        -0.329568        -0.165863
