19
Iteration:  1160charge 0 multiplicity 1
 C         0.275513        -0.527304         0.137262
 C         1.006276         0.449562        -0.768892
 C         0.389987         1.427768        -1.696743
 C         1.251444         2.308455        -2.679887
 O         2.246105         3.207153        -2.052892
 C         2.771759         2.032879        -2.694025
 C         3.379651         0.830168        -1.884230
 C         2.419441         0.334428        -0.825800
 O         1.853776         1.241251         0.112987
 H         0.869971        -1.464691         0.301994
 H         0.397196        -0.087361         1.162610
 H        -0.740912        -0.697024        -0.022261
 H        -0.495691         0.977379        -2.339417
 H        -0.296922         2.140286        -1.218310
 H         0.680573         2.852240        -3.394418
 H         3.314667         2.287441        -3.579953
 H         3.624514         0.054774        -2.656183
 H         4.279140         1.201523        -1.330219
 H         2.881727        -0.562105        -0.329012
