19
Iteration:  3161charge 0 multiplicity 1
 C         0.171990        -0.592065        -0.455122
 C         1.084868         0.627151        -0.631719
 C         0.367138         1.617385        -1.570441
 C         1.317243         1.845081        -2.780596
 O         2.082226         3.081132        -2.859507
 C         2.777834         1.804875        -2.587281
 C         3.451241         1.444607        -1.329815
 C         2.544304         0.501094        -0.526065
 O         1.825469         1.068904         0.558711
 H        -0.111620        -0.887582        -1.491576
 H         0.670568        -1.388905         0.035547
 H        -0.810190        -0.365102         0.216432
 H        -0.652271         1.356106        -1.830209
 H         0.280373         2.632592        -1.126877
 H         1.093299         1.409898        -3.785552
 H         3.158489         1.370520        -3.574662
 H         4.480630         0.957089        -1.488869
 H         3.818068         2.164506        -0.603237
 H         3.009502        -0.483695        -0.358342
