19
Iteration:  3904
 C         0.144618        -0.511931        -0.040902
 C         1.063702         0.500086        -0.681997
 C         0.432328         1.114997        -1.932975
 C         1.372274         1.995822        -2.756557
 O         2.074148         3.175549        -2.196379
 C         2.907352         2.084377        -2.653766
 C         3.445952         0.947046        -1.715927
 C         2.594015         0.614246        -0.499905
 O         1.652988         1.449376         0.241810
 H        -0.419653        -1.136842        -0.703637
 H         0.739688        -1.085992         0.675832
 H        -0.632861         0.026684         0.545629
 H         0.103313         0.299378        -2.593218
 H        -0.440305         1.729682        -1.683482
 H         0.997549         2.256157        -3.726688
 H         3.529391         2.112308        -3.600083
 H         3.569836         0.081157        -2.395246
 H         4.491853         1.241764        -1.339148
 H         2.937256        -0.297392         0.095137
