19
Iteration:  2335charge 0 multiplicity 1
 C         0.232265        -0.533816        -0.139203
 C         1.094380         0.620936        -0.687524
 C         0.391223         1.204169        -1.888332
 C         1.320194         1.971990        -2.783649
 O         2.145786         3.024231        -2.024738
 C         2.744444         1.858418        -2.654065
 C         3.487812         0.954504        -1.713778
 C         2.540500         0.553804        -0.507695
 O         1.692673         1.645952         0.157350
 H         0.568665        -1.385157        -0.888103
 H         0.385113        -0.867093         0.832969
 H        -0.821686        -0.137842        -0.313792
 H         0.026960         0.312261        -2.562626
 H        -0.584985         1.695478        -1.654757
 H         0.859065         2.503892        -3.742193
 H         3.342969         2.255044        -3.499797
 H         4.063033         0.064623        -2.157035
 H         4.244900         1.645171        -1.340638
 H         2.805497        -0.211841         0.316080
