19
Iteration:    81
 C         0.087580        -0.676023         0.008440
 C         0.997687         0.440044        -0.651633
 C         0.482777         1.601577        -1.479513
 C         1.294344         2.353506        -2.536903
 O         2.365927         3.260735        -2.408071
 C         2.650084         1.887060        -2.800076
 C         3.279991         1.075769        -1.823770
 C         2.513883         0.387882        -0.826396
 O         1.917873         1.035143         0.272362
 H         0.778331        -1.397251         0.752879
 H        -0.805905        -0.343280         0.622330
 H        -0.030716        -1.388189        -0.775232
 H        -0.233442         1.135698        -2.167356
 H        -0.129998         2.353164        -0.816580
 H         0.641801         2.698321        -3.426709
 H         2.825114         1.930321        -3.851634
 H         3.747393         0.349321        -2.445308
 H         4.077020         1.727669        -1.353979
 H         2.962225        -0.490571        -0.439696
