19
Iteration:  4740
 C         0.088252        -0.665342        -0.321959
 C         1.056827         0.629830        -0.601869
 C         0.357987         1.520218        -1.625032
 C         1.308963         1.950577        -2.793637
 O         2.215567         3.106474        -2.652528
 C         2.769525         1.755163        -2.745529
 C         3.421491         1.396103        -1.389157
 C         2.519104         0.540845        -0.628738
 O         1.872445         1.153750         0.545417
 H         0.458708        -1.124847        -1.334140
 H         0.261998        -1.264394         0.628844
 H        -0.947604        -0.433224        -0.360539
 H        -0.460157         0.952083        -2.094949
 H        -0.267354         2.284138        -1.136070
 H         0.981315         1.981953        -3.937804
 H         3.305560         1.387540        -3.621322
 H         4.424265         0.836357        -1.479108
 H         3.640448         2.262971        -0.730238
 H         2.970899        -0.427525        -0.336727
