19
Iteration:  4882
 C         0.104654        -0.361472         0.116677
 C         1.070181         0.479235        -0.717630
 C         0.518033         1.075656        -1.962689
 C         1.434137         1.972176        -2.766646
 O         1.953017         3.106062        -2.040229
 C         2.893014         2.151614        -2.517227
 C         3.479584         1.046567        -1.738839
 C         2.493558         0.423050        -0.674008
 O         1.744445         1.412636         0.063733
 H        -0.434178        -1.076236        -0.633322
 H         0.503348        -0.727320         1.081554
 H        -0.648583         0.436255         0.266678
 H         0.270633         0.203572        -2.675866
 H        -0.553535         1.674538        -1.884389
 H         1.055747         2.035332        -3.824024
 H         3.532272         2.543270        -3.270123
 H         3.866638         0.242594        -2.511094
 H         4.351159         1.402645        -1.141844
 H         3.011304        -0.324243        -0.042594
