19
Iteration:  4770charge 0 multiplicity 1
 C         0.255796        -0.610486        -0.313412
 C         1.129538         0.607324        -0.655431
 C         0.458074         1.543719        -1.632991
 C         1.316399         1.990988        -2.816090
 O         2.128651         3.174979        -2.619510
 C         2.782750         1.808425        -2.751349
 C         3.404443         1.189629        -1.469818
 C         2.520437         0.492073        -0.509378
 O         1.644895         1.203897         0.510619
 H         0.558218        -1.504977        -0.874844
 H         0.575764        -1.065564         0.671286
 H        -0.802203        -0.478382        -0.510466
 H        -0.425726         1.069183        -1.995394
 H         0.053283         2.361788        -0.946517
 H         0.900139         1.908519        -3.769900
 H         3.310895         1.593176        -3.640925
 H         4.084015         0.378658        -1.881010
 H         3.988235         1.933421        -0.899788
 H         3.002619        -0.364389        -0.019258
