19
Iteration:  4806charge 0 multiplicity 1
 C         0.211526        -0.781170        -0.164419
 C         1.009683         0.531487        -0.696289
 C         0.301626         1.516066        -1.739428
 C         1.382137         1.989139        -2.846920
 O         2.133017         3.126052        -2.412291
 C         2.885126         1.897560        -2.679874
 C         3.434933         1.146423        -1.537406
 C         2.508183         0.537789        -0.562927
 O         1.735103         1.407117         0.364410
 H         0.115933        -1.362871        -1.162101
 H         0.769781        -1.192165         0.655162
 H        -0.703031        -0.672278         0.360176
 H        -0.426694         0.910819        -2.094803
 H        -0.041595         2.423655        -1.215769
 H         0.895782         1.987414        -3.912885
 H         3.372406         1.839512        -3.637605
 H         4.056397         0.239616        -1.909472
 H         4.268146         1.652413        -0.988966
 H         3.036319        -0.246768         0.009935
