19
Iteration:  3693charge 0 multiplicity 1
 C         0.141670        -0.585463        -0.097265
 C         1.003998         0.548586        -0.642129
 C         0.414912         1.386517        -1.822989
 C         1.378873         1.953842        -2.911370
 O         2.076457         3.173019        -2.445690
 C         2.882876         1.937944        -2.705861
 C         3.401478         1.218282        -1.533504
 C         2.505811         0.480161        -0.565727
 O         1.800538         1.221316         0.435121
 H         0.020663        -1.404608        -0.805235
 H         0.615789        -1.027035         0.760201
 H        -0.859622        -0.257166         0.248499
 H        -0.350246         0.927531        -2.364548
 H         0.132579         2.341590        -1.407363
 H         0.998185         2.038506        -3.927034
 H         3.640463         1.929759        -3.497841
 H         4.102916         0.411489        -1.796483
 H         4.009514         2.054438        -1.043892
 H         2.935164        -0.453713        -0.040235
