19
Iteration:  1912
 C         0.145271        -0.548101        -0.146181
 C         1.064819         0.628161        -0.644823
 C         0.361372         1.359532        -1.820243
 C         1.371011         1.924036        -2.869970
 O         2.020700         3.095875        -2.451232
 C         2.851512         1.892520        -2.672690
 C         3.424398         1.219666        -1.534982
 C         2.545983         0.556399        -0.528399
 O         1.836948         1.248409         0.421277
 H         0.118741        -1.355389        -0.961151
 H         0.526962        -1.048663         0.685970
 H        -0.865073        -0.043770        -0.010752
 H        -0.274538         0.668497        -2.331209
 H        -0.233280         2.251876        -1.444724
 H         1.089078         1.799233        -3.868568
 H         3.557057         2.010029        -3.494446
 H         4.200000         0.483159        -1.862612
 H         4.047185         1.914929        -0.910757
 H         2.972341        -0.424993        -0.101461
