19
Iteration:  3165
 C         0.116323        -0.614188        -0.441471
 C         1.062176         0.628867        -0.615880
 C         0.384607         1.605239        -1.569810
 C         1.301187         1.830474        -2.771291
 O         2.106331         3.078914        -2.885929
 C         2.767310         1.850670        -2.602712
 C         3.481921         1.451866        -1.311907
 C         2.572432         0.525285        -0.519189
 O         1.828716         1.051951         0.536216
 H        -0.130613        -0.921081        -1.467206
 H         0.629795        -1.404807         0.164074
 H        -0.766119        -0.469406         0.055265
 H        -0.658015         1.295575        -1.740426
 H         0.309217         2.666629        -1.031387
 H         0.965481         1.460099        -3.748626
 H         3.304080         1.378069        -3.381898
 H         4.395433         0.912092        -1.508830
 H         3.862863         2.259945        -0.692579
 H         2.932092        -0.465876        -0.460503
