19
Iteration:   625charge 0 multiplicity 1
 C         0.110033        -0.433505         0.011446
 C         1.054261         0.520575        -0.722121
 C         0.382431         1.498757        -1.637245
 C         1.236229         2.294869        -2.578247
 O         2.173600         3.149823        -2.048139
 C         2.687843         2.006021        -2.778351
 C         3.383998         0.947509        -1.899456
 C         2.582443         0.224258        -0.802029
 O         2.020696         1.120202         0.120741
 H        -0.370591         0.297961         0.774717
 H        -0.783163        -0.814959        -0.492414
 H         0.674495        -1.304463         0.634872
 H        -0.340276         0.839463        -2.284883
 H        -0.221770         2.249679        -0.982548
 H         0.649387         2.629414        -3.435920
 H         3.095127         2.302860        -3.720252
 H         3.925289         0.118146        -2.496132
 H         4.161158         1.514149        -1.368647
 H         2.903171        -0.711642        -0.307711
