19
Iteration:  1797
 C         0.260503        -0.504570        -0.024131
 C         1.082102         0.512570        -0.618363
 C         0.441794         1.133091        -2.005941
 C         1.336219         2.068028        -2.861200
 O         2.054631         3.144469        -2.238961
 C         2.799983         2.001866        -2.635891
 C         3.426704         0.971708        -1.634456
 C         2.541582         0.548720        -0.424969
 O         1.702948         1.471252         0.243180
 H         0.107707        -1.258938        -0.745172
 H         0.636145        -1.130479         0.873602
 H        -0.670224        -0.041055         0.128813
 H         0.084589         0.324487        -2.568798
 H        -0.412131         1.733893        -1.766099
 H         0.904171         2.417914        -3.935215
 H         3.486570         2.180588        -3.613209
 H         3.531283         0.111296        -2.308734
 H         4.472654         1.219166        -1.338410
 H         3.102317        -0.026219         0.284025
