19
Iteration:  4007
 C         0.110214        -0.529480        -0.020830
 C         1.101624         0.471852        -0.699992
 C         0.484329         1.278453        -1.887527
 C         1.374519         2.007852        -2.877216
 O         2.001239         3.191257        -2.354732
 C         2.839310         2.023858        -2.668756
 C         3.453381         1.099473        -1.596025
 C         2.530967         0.484649        -0.521483
 O         1.762963         1.295977         0.361331
 H         0.019810        -1.578015        -0.571878
 H         0.374095        -0.741190         1.066816
 H        -0.845764         0.019979        -0.040299
 H        -0.098185         0.581334        -2.396433
 H        -0.204615         2.197902        -1.530682
 H         0.974934         2.129781        -3.937608
 H         3.600375         2.110930        -3.422496
 H         3.795994         0.208445        -2.233216
 H         4.350412         1.590556        -1.187491
 H         3.105882        -0.203657         0.023228
