19
Iteration:  2559charge 0 multiplicity 1
 C         0.092456        -0.409139        -0.067952
 C         1.085619         0.606000        -0.737633
 C         0.357864         1.290038        -1.859060
 C         1.335025         1.949965        -2.817608
 O         2.021046         3.012870        -2.230095
 C         2.773933         1.952999        -2.552353
 C         3.481019         1.157531        -1.554712
 C         2.629698         0.446163        -0.636083
 O         1.852028         1.337601         0.189424
 H         0.302937        -1.362146        -0.367332
 H         0.286314        -0.203730         1.056309
 H        -0.918208        -0.294062        -0.410539
 H        -0.162853         0.394479        -2.390130
 H        -0.399298         1.877190        -1.420861
 H         0.982156         2.082712        -3.830667
 H         3.506692         2.284542        -3.337212
 H         4.110812         0.465844        -2.075643
 H         4.280891         1.753603        -1.114990
 H         3.008455        -0.381099        -0.141887
