19
Iteration:  1323charge 0 multiplicity 1
 C         0.095502        -0.546883        -0.238619
 C         1.110956         0.548840        -0.606665
 C         0.388510         1.442252        -1.643878
 C         1.212879         2.152207        -2.615992
 O         2.215325         3.087578        -2.240899
 C         2.681710         1.881703        -2.848659
 C         3.432367         1.030228        -1.810158
 C         2.560312         0.470593        -0.672509
 O         1.950182         1.276616         0.415670
 H        -0.812448         0.001581         0.176835
 H        -0.386578        -1.168773        -1.033931
 H         0.554601        -1.216470         0.524483
 H        -0.328805         0.925571        -2.199922
 H        -0.354551         2.175738        -1.194631
 H         0.660456         2.548887        -3.533634
 H         3.062851         2.016441        -3.791776
 H         3.845051         0.112315        -2.252848
 H         4.328023         1.503387        -1.428967
 H         3.044993        -0.324994        -0.203109
