19
Iteration:  4022charge 0 multiplicity 1
 C         0.143854        -0.523643        -0.145107
 C         1.041056         0.575726        -0.570457
 C         0.459079         1.269956        -1.780960
 C         1.360311         1.965165        -2.774105
 O         2.111520         3.228509        -2.459507
 C         2.816671         1.974052        -2.708346
 C         3.468399         1.155210        -1.605212
 C         2.558322         0.471527        -0.552821
 O         1.715010         1.273449         0.386697
 H         0.061673        -1.242885        -0.901661
 H         0.545868        -0.945256         0.829392
 H        -0.939945        -0.260659        -0.014734
 H         0.004757         0.437807        -2.406779
 H        -0.391336         1.796518        -1.428773
 H         0.944795         2.035407        -3.756622
 H         3.224420         2.104680        -3.717757
 H         4.052879         0.336224        -2.013079
 H         4.175971         1.736094        -1.003971
 H         2.960408        -0.527293        -0.162132
