19
Iteration:  4526
 C         0.048901        -0.710635        -0.288279
 C         1.028817         0.551900        -0.603679
 C         0.435544         1.580094        -1.629157
 C         1.344768         1.942065        -2.839391
 O         2.186165         3.129187        -2.714865
 C         2.785703         1.778148        -2.674321
 C         3.427806         1.463764        -1.410469
 C         2.520572         0.529835        -0.585484
 O         1.873979         1.091538         0.500282
 H         0.495059        -1.643850        -0.589651
 H        -0.083633        -0.936729         0.722866
 H        -1.117059        -0.837579        -0.612654
 H        -0.559136         1.437244        -1.971436
 H         0.157217         2.486783        -0.995701
 H         0.776930         1.864182        -3.731677
 H         3.412338         1.677614        -3.627783
 H         4.405934         0.914076        -1.434717
 H         3.522599         2.485371        -0.890151
 H         2.966517        -0.457761        -0.460621
