19
Iteration:  1201charge 0 multiplicity 1
 C         0.111740        -0.319652         0.007263
 C         1.107739         0.604605        -0.676987
 C         0.445283         1.300366        -1.792948
 C         1.203017         2.238411        -2.653715
 O         2.049775         3.101480        -1.942049
 C         2.718242         2.060902        -2.649295
 C         3.407430         0.861286        -1.940489
 C         2.468896         0.275353        -0.844320
 O         2.128728         1.247922         0.192965
 H         0.297213        -1.329508        -0.343143
 H         0.183792        -0.223721         1.093376
 H        -1.051761         0.084569        -0.229898
 H        -0.112879         0.502354        -2.356286
 H        -0.471580         1.784257        -1.267459
 H         0.685113         2.609449        -3.639976
 H         3.305506         2.439641        -3.440451
 H         3.640891         0.051538        -2.608823
 H         4.378714         1.030705        -1.532121
 H         2.789297        -0.645211        -0.462850
