19
Iteration:  3836
 C         0.057046        -0.634137        -0.116711
 C         1.044636         0.508816        -0.674558
 C         0.462526         1.412325        -1.725904
 C         1.319992         2.000258        -2.832136
 O         2.178831         3.140715        -2.508453
 C         2.792295         1.874563        -2.744765
 C         3.502065         1.289384        -1.498394
 C         2.510618         0.536036        -0.554022
 O         1.753273         1.222526         0.405635
 H         0.026127        -1.492888        -0.686013
 H         0.527820        -0.921605         0.863686
 H        -0.992878        -0.344838        -0.016814
 H        -0.252585         0.728526        -2.273262
 H        -0.040913         2.157944        -1.216610
 H         0.944893         1.998757        -3.846402
 H         3.262161         2.034772        -3.753955
 H         4.255219         0.575050        -1.849286
 H         4.034572         2.203159        -1.071610
 H         3.088142        -0.449054        -0.136524
