19
Iteration:  4268charge 0 multiplicity 1
 C         0.261972        -0.590719        -0.027008
 C         1.061110         0.486243        -0.770268
 C         0.324870         1.328843        -1.949502
 C         1.356092         2.078044        -2.724929
 O         2.163371         3.135464        -2.229870
 C         2.801938         1.898372        -2.592050
 C         3.468346         1.056459        -1.539545
 C         2.515505         0.514508        -0.619477
 O         1.675070         1.410907         0.151640
 H         0.325389        -1.681084        -0.307648
 H         0.771065        -0.574753         1.017296
 H        -0.706523        -0.232940         0.238173
 H        -0.182728         0.555131        -2.660787
 H        -0.452028         1.886263        -1.527714
 H         0.923592         2.442663        -3.708654
 H         3.419808         1.922375        -3.487941
 H         4.078272         0.349902        -2.044819
 H         4.062188         1.782585        -1.045843
 H         2.900835        -0.299345         0.059933
