19
Iteration:  3283
 C         0.216139        -0.695051        -0.581839
 C         1.107079         0.594320        -0.650248
 C         0.583078         1.757746        -1.522474
 C         1.289220         1.843711        -2.902433
 O         2.048780         3.103839        -2.868053
 C         2.722859         1.666054        -2.701476
 C         3.420050         1.425405        -1.304938
 C         2.523933         0.532827        -0.331185
 O         1.719172         1.090990         0.649960
 H        -0.290807        -0.865798        -1.583547
 H         0.911234        -1.527814        -0.183075
 H        -0.694981        -0.614613         0.179515
 H        -0.449905         1.768802        -1.478249
 H         1.032785         2.727341        -1.056029
 H         0.708208         1.595518        -3.840056
 H         3.094489         1.277393        -3.637394
 H         4.522766         1.030139        -1.391110
 H         3.536455         2.448451        -0.950012
 H         3.024339        -0.317962        -0.027047
