19
Iteration:   620
 C         0.097095        -0.434479         0.010258
 C         1.087199         0.486729        -0.713875
 C         0.373211         1.480209        -1.642328
 C         1.186221         2.338085        -2.539784
 O         2.187972         3.167451        -2.031409
 C         2.697018         1.993528        -2.802148
 C         3.380232         0.880974        -1.945226
 C         2.601471         0.239333        -0.771817
 O         1.990940         1.172044         0.119051
 H        -0.363951         0.182024         0.717830
 H        -0.668965        -0.890705        -0.665842
 H         0.570822        -1.263146         0.614946
 H        -0.162275         0.870633        -2.284835
 H        -0.111016         2.128746        -0.984807
 H         0.621468         2.696214        -3.438245
 H         3.234822         2.265755        -3.802132
 H         3.847482         0.087936        -2.440467
 H         4.145309         1.485944        -1.407438
 H         2.999562        -0.662467        -0.239553
