19
Iteration:  4938
 C         0.125012        -0.405977        -0.003969
 C         1.025991         0.559999        -0.741202
 C         0.474888         1.052366        -1.984114
 C         1.319968         2.071702        -2.758568
 O         2.084773         3.092591        -2.031625
 C         2.843043         1.969748        -2.674729
 C         3.483497         1.075951        -1.687139
 C         2.504003         0.489028        -0.585759
 O         1.766884         1.462086         0.218830
 H         0.153214        -1.356410        -0.637742
 H         0.622573        -0.640859         0.933118
 H        -0.841098         0.085776         0.010434
 H         0.407282         0.193686        -2.715074
 H        -0.678043         1.341498        -1.898842
 H         0.839194         2.423413        -3.706372
 H         3.442104         2.169982        -3.579609
 H         3.833025         0.162524        -2.291213
 H         4.357536         1.543379        -1.181274
 H         2.954331        -0.393380        -0.080221
