19
Iteration:   773charge 0 multiplicity 1
 C         0.225935        -0.649955        -0.147744
 C         1.103927         0.573491        -0.638486
 C         0.377256         1.616660        -1.564697
 C         1.220945         2.329448        -2.541390
 O         2.261468         3.235839        -2.114510
 C         2.643597         1.965935        -2.754803
 C         3.299573         0.783967        -2.054434
 C         2.514691         0.322771        -0.784494
 O         1.990786         1.230197         0.352900
 H        -0.863651        -0.472662         0.075014
 H         0.118628        -1.378499        -0.995327
 H         0.710530        -1.059072         0.762497
 H        -0.554051         1.059482        -2.088837
 H        -0.161599         2.335943        -0.956564
 H         0.690210         2.510677        -3.520396
 H         2.945534         2.211190        -3.809967
 H         3.341604        -0.103198        -2.699879
 H         4.387654         0.942258        -1.779826
 H         2.769440        -0.652605        -0.343409
