19
Iteration:   196
 C         0.330315        -0.587864        -0.055961
 C         0.992062         0.631047        -0.627769
 C         0.303288         1.573661        -1.629696
 C         1.216344         2.405090        -2.609658
 O         2.342095         3.124239        -2.196695
 C         2.625276         1.917772        -2.773548
 C         3.346453         0.942070        -1.872964
 C         2.417853         0.264483        -0.843217
 O         1.975228         1.153980         0.329563
 H         0.821714        -0.994014         0.753288
 H        -0.672875        -0.283828         0.295029
 H         0.235972        -1.407922        -0.872690
 H        -0.258957         0.863257        -2.305523
 H        -0.469156         2.084941        -1.116404
 H         0.675801         2.866135        -3.353353
 H         3.201352         1.977901        -3.650900
 H         3.703225         0.087212        -2.523188
 H         4.150393         1.423189        -1.352243
 H         2.802998        -0.672269        -0.428411
