19
Iteration:   272
 C         0.124743        -0.369624         0.051291
 C         1.123661         0.494502        -0.688335
 C         0.416981         1.351902        -1.784966
 C         1.263272         2.293126        -2.615734
 O         2.093248         3.196730        -1.985489
 C         2.739469         2.080598        -2.698210
 C         3.267698         0.833510        -2.009542
 C         2.546578         0.242498        -0.858265
 O         2.092815         1.233969         0.299312
 H         0.509044        -0.951657         0.896208
 H        -0.698667         0.307507         0.439222
 H        -0.490765        -1.114973        -0.743664
 H        -0.114868         0.599328        -2.489378
 H        -0.340852         1.983860        -1.269628
 H         0.778835         2.663366        -3.463514
 H         3.235205         2.379019        -3.611336
 H         3.280815         0.004301        -2.777114
 H         4.256311         0.998311        -1.647638
 H         2.870262        -0.726303        -0.484539
