19
Iteration:  1838
 C         0.274033        -0.539190        -0.013953
 C         1.011296         0.551282        -0.725229
 C         0.271160         1.304722        -1.845061
 C         1.351318         1.920735        -2.764211
 O         2.129666         3.021184        -2.233419
 C         2.875755         1.843827        -2.713780
 C         3.536471         1.198519        -1.529245
 C         2.535395         0.560334        -0.642991
 O         1.650063         1.434480         0.183881
 H        -0.344886        -0.938350        -0.835277
 H         0.955407        -1.426800         0.236928
 H        -0.288717        -0.106377         0.843493
 H        -0.237753         0.635401        -2.676963
 H        -0.392969         2.069792        -1.432292
 H         0.866611         2.212428        -3.687598
 H         3.455579         1.983810        -3.559873
 H         4.409839         0.560803        -1.704816
 H         3.936894         2.029889        -0.915325
 H         2.930192        -0.245950        -0.052425
