19
Iteration:  1847
 C         0.228505        -0.579937        -0.021028
 C         1.047193         0.555386        -0.761266
 C         0.310869         1.291344        -1.850568
 C         1.338796         1.967537        -2.819293
 O         2.177868         3.045379        -2.303845
 C         2.827376         1.895242        -2.697122
 C         3.530120         1.223299        -1.505952
 C         2.535346         0.520318        -0.570225
 O         1.655271         1.397398         0.209731
 H        -0.682610        -1.116567        -0.579428
 H         0.903697        -1.358909         0.360410
 H        -0.303944        -0.122454         0.929433
 H        -0.497896         0.533026        -2.304681
 H        -0.371128         2.090763        -1.366203
 H         1.078607         2.099098        -3.786741
 H         3.359149         2.076251        -3.575095
 H         4.412209         0.594210        -1.823818
 H         3.967512         2.130469        -1.028119
 H         3.020361        -0.339447        -0.009753
