19
Iteration:  2738
 C         0.067096        -0.484939        -0.135842
 C         1.083893         0.561177        -0.660493
 C         0.483387         1.349836        -1.659823
 C         1.357836         1.963068        -2.840970
 O         2.077688         3.120865        -2.461200
 C         2.774515         1.836691        -2.724980
 C         3.536591         1.365086        -1.486643
 C         2.545397         0.465164        -0.640848
 O         1.755499         1.158549         0.371704
 H         0.162041        -1.386465        -0.857967
 H         0.247933        -0.922579         0.769096
 H        -0.979097        -0.093935        -0.091647
 H        -0.353224         0.684401        -2.190125
 H        -0.218983         2.112855        -1.250399
 H         1.066173         1.805435        -3.827522
 H         3.325874         1.732510        -3.660438
 H         4.452103         1.029654        -1.882086
 H         3.731519         2.383391        -0.955999
 H         3.087311        -0.345075        -0.214103
