19
Iteration:  2107charge 0 multiplicity 1
 C         0.126141        -0.569142        -0.104583
 C         1.057564         0.562498        -0.587887
 C         0.435697         1.237396        -1.930088
 C         1.373304         1.999028        -2.853308
 O         2.019648         3.081137        -2.259681
 C         2.824952         2.019126        -2.607569
 C         3.459393         1.060736        -1.646830
 C         2.513204         0.502350        -0.467922
 O         1.841244         1.475565         0.277547
 H        -0.107214        -1.059364        -1.098684
 H         0.329113        -1.198011         0.674816
 H        -0.828998        -0.061151         0.260963
 H         0.147064         0.284142        -2.546054
 H        -0.512874         1.786949        -1.695494
 H         1.022229         1.977211        -3.972522
 H         3.534210         2.229177        -3.520233
 H         3.894485         0.306491        -2.340589
 H         4.333136         1.520038        -1.164969
 H         2.967332        -0.278178         0.116354
