19
Iteration:  4184
 C         0.244844        -0.684856        -0.144561
 C         1.015509         0.502122        -0.642703
 C         0.458955         1.538849        -1.715760
 C         1.402619         1.973580        -2.803982
 O         2.107991         3.202085        -2.685087
 C         2.846705         1.909954        -2.704951
 C         3.370586         1.233380        -1.440827
 C         2.490430         0.436559        -0.529798
 O         1.680558         1.218475         0.416676
 H         0.022433        -1.307157        -1.011922
 H         0.894824        -1.035856         0.729306
 H        -0.769401        -0.352252         0.155989
 H        -0.318174         1.063215        -2.180659
 H        -0.018316         2.396282        -0.988948
 H         1.148588         1.853611        -3.871923
 H         3.426635         1.773990        -3.597463
 H         4.331128         0.637264        -1.709488
 H         3.904975         1.955249        -0.663351
 H         2.834710        -0.478974        -0.172941
