19
Iteration:   350charge 0 multiplicity 1
 C         0.111105        -0.532865        -0.011922
 C         1.056610         0.456619        -0.687022
 C         0.353994         1.469187        -1.608242
 C         1.273563         2.197860        -2.669733
 O         2.192286         3.243264        -2.059124
 C         2.717480         2.013100        -2.702232
 C         3.382332         0.894151        -1.935183
 C         2.568155         0.330394        -0.804339
 O         1.999320         1.244608         0.186589
 H         0.595206        -1.422092         0.539829
 H        -0.363543         0.029674         0.767826
 H        -0.861953        -0.791883        -0.685777
 H        -0.599045         0.986583        -2.114169
 H        -0.096441         2.314493        -1.021914
 H         0.804348         2.416921        -3.571535
 H         3.056928         2.212972        -3.636569
 H         3.490453         0.061593        -2.672986
 H         4.401213         1.113031        -1.731769
 H         2.998529        -0.517489        -0.271733
