19
Iteration:  1975
 C         0.270687        -0.655246        -0.031034
 C         0.974499         0.570719        -0.626160
 C         0.445815         1.236546        -1.845577
 C         1.342122         2.070764        -2.775368
 O         2.200176         3.180967        -2.418295
 C         2.836230         1.958402        -2.708013
 C         3.441047         1.023854        -1.603284
 C         2.482294         0.591734        -0.534831
 O         1.638685         1.421156         0.338258
 H         0.534352        -1.548311        -0.674105
 H         0.571318        -0.845777         0.972637
 H        -0.850366        -0.609541        -0.013344
 H        -0.068116         0.518987        -2.492482
 H        -0.380109         1.872449        -1.429283
 H         0.885581         2.217291        -3.851384
 H         3.445550         1.990216        -3.739313
 H         3.847884         0.148088        -2.158177
 H         4.273729         1.584762        -1.154087
 H         2.839286        -0.360518        -0.073661
