19
Iteration:    95
 C         0.200445        -0.630342         0.002134
 C         0.998257         0.516554        -0.631361
 C         0.342499         1.607055        -1.536214
 C         1.270695         2.335339        -2.551098
 O         2.386142         3.287771        -2.399548
 C         2.635347         1.962817        -2.898118
 C         3.364195         1.097513        -1.805652
 C         2.440445         0.232618        -0.815190
 O         1.942523         0.974450         0.349603
 H         0.927927        -1.107254         0.631604
 H        -0.591548        -0.177509         0.672526
 H        -0.479245        -1.316259        -0.648031
 H        -0.410768         1.074566        -2.221036
 H        -0.302821         2.273910        -0.935390
 H         0.636729         2.559607        -3.425793
 H         3.053029         1.750636        -3.913696
 H         4.208496         0.424239        -2.175199
 H         3.855206         1.807157        -1.118879
 H         2.871630        -0.796144        -0.631522
