19
Iteration:   997charge 0 multiplicity 1
 C         0.085628        -0.451027        -0.189427
 C         1.178495         0.591106        -0.577471
 C         0.415524         1.603961        -1.447270
 C         1.144531         2.227171        -2.605917
 O         2.166227         3.196325        -2.295231
 C         2.661433         2.009067        -2.782067
 C         3.345999         1.006187        -1.881376
 C         2.544091         0.245869        -0.845109
 O         2.085370         0.979979         0.383465
 H        -0.951240         0.036303        -0.178415
 H        -0.064796        -1.297794        -0.947522
 H         0.303195        -0.941945         0.752165
 H        -0.302007         1.020930        -1.853681
 H        -0.102301         2.287009        -0.849889
 H         0.599133         2.524505        -3.480667
 H         3.116888         2.004695        -3.870181
 H         3.815275         0.227069        -2.535694
 H         4.167178         1.470772        -1.279309
 H         2.935233        -0.794871        -0.605744
