19
Iteration:  4340charge 0 multiplicity 1
 C         0.153056        -0.268592        -0.112428
 C         1.158688         0.606586        -0.738825
 C         0.539715         1.063394        -2.050365
 C         1.263548         2.047287        -2.766123
 O         1.961041         2.986186        -1.951357
 C         2.714376         2.010759        -2.620298
 C         3.459208         0.940468        -1.627948
 C         2.605448         0.435237        -0.546739
 O         1.795892         1.477203         0.132301
 H        -0.033538        -1.022630        -0.836121
 H         0.439808        -0.607494         0.807831
 H        -0.776638         0.441155         0.034638
 H         0.303334         0.187724        -2.477472
 H        -0.562634         1.419350        -1.744953
 H         0.925152         2.253988        -3.765680
 H         3.436867         2.553805        -3.292520
 H         3.846679         0.188817        -2.431511
 H         4.362152         1.458377        -1.087210
 H         3.250781        -0.160413         0.070259
