19
Iteration:   445charge 0 multiplicity 1
 C         0.090117        -0.578495        -0.050503
 C         1.039134         0.472002        -0.653145
 C         0.374434         1.605890        -1.497467
 C         1.221718         2.205589        -2.624628
 O         2.176166         3.233058        -2.243019
 C         2.712062         2.019643        -2.725472
 C         3.392300         0.989064        -1.864875
 C         2.462783         0.257255        -0.839570
 O         2.103041         1.138550         0.228312
 H        -0.092182        -0.252661         0.925986
 H        -0.876839        -0.682887        -0.596212
 H         0.531668        -1.590102        -0.065178
 H        -0.551890         1.324565        -1.899248
 H         0.084639         2.373534        -0.771416
 H         0.754586         2.453196        -3.622805
 H         3.185464         2.108915        -3.766713
 H         3.818234         0.265563        -2.590465
 H         4.297260         1.236733        -1.243909
 H         2.918211        -0.685634        -0.454551
