19
Iteration:  4726
 C         0.167765        -0.566585        -0.355935
 C         1.034303         0.589473        -0.568123
 C         0.424713         1.525441        -1.618219
 C         1.330734         1.940597        -2.736831
 O         2.187054         3.082230        -2.690025
 C         2.816862         1.788445        -2.695809
 C         3.392200         1.439799        -1.392716
 C         2.504164         0.411310        -0.630171
 O         1.789983         1.137701         0.471347
 H        -0.030650        -1.350620        -1.076637
 H         0.631629        -1.173003         0.476248
 H        -0.835526        -0.185085        -0.100910
 H        -0.331957         0.991296        -2.027327
 H         0.059580         2.482411        -1.150293
 H         0.799473         1.748446        -3.629605
 H         3.325157         1.656070        -3.600385
 H         4.454487         1.085509        -1.547888
 H         3.366744         2.409919        -0.853099
 H         2.920084        -0.583242        -0.409564
