19
Iteration:  1120
 C         0.143636        -0.560087        -0.173728
 C         1.066870         0.608796        -0.617474
 C         0.324144         1.476511        -1.589733
 C         1.158723         2.265330        -2.613252
 O         2.297609         3.100459        -2.130553
 C         2.621715         1.902357        -2.791554
 C         3.401165         0.914407        -1.879622
 C         2.553921         0.420540        -0.760285
 O         2.009678         1.258457         0.296342
 H         0.633681        -1.447080         0.391274
 H        -0.648900        -0.173934         0.563488
 H        -0.333454        -0.994649        -1.081621
 H        -0.100598         0.756150        -2.190250
 H        -0.426402         2.043943        -1.063529
 H         0.598521         2.870079        -3.345392
 H         3.151048         2.024512        -3.867833
 H         3.912638         0.024950        -2.404186
 H         4.228890         1.598215        -1.514063
 H         2.874604        -0.627591        -0.411890
