19
Iteration:  3038
 C         0.143057        -0.542792        -0.237745
 C         1.083914         0.604544        -0.609780
 C         0.366838         1.389336        -1.706415
 C         1.317680         1.874781        -2.828075
 O         2.094817         3.068383        -2.413250
 C         2.869681         1.895452        -2.735234
 C         3.496892         1.295045        -1.527600
 C         2.584292         0.527331        -0.614281
 O         1.723083         1.228602         0.412159
 H         0.093986        -1.390176        -0.902677
 H         0.256015        -1.072364         0.784438
 H        -0.816240         0.064945        -0.229088
 H        -0.484204         0.794170        -2.166521
 H        -0.115229         2.254378        -1.246591
 H         0.990135         1.906646        -3.836691
 H         3.401265         1.834117        -3.690833
 H         4.433992         0.793216        -1.726221
 H         3.894345         2.212649        -0.912240
 H         2.947713        -0.528730        -0.332881
