19
Iteration:  4558
 C         0.170342        -0.497244        -0.385200
 C         1.116666         0.577773        -0.642803
 C         0.493244         1.603660        -1.547876
 C         1.314530         1.872784        -2.806206
 O         2.023762         3.122127        -2.769374
 C         2.773767         1.801310        -2.644437
 C         3.440808         1.396513        -1.377686
 C         2.586187         0.428260        -0.544261
 O         1.740466         1.035277         0.499029
 H         0.650433        -1.402034        -0.783669
 H         0.315207        -0.728925         0.662480
 H        -0.990842        -0.254147        -0.793346
 H        -0.558687         1.370538        -1.941442
 H         0.480727         2.534283        -1.003808
 H         0.848988         1.703475        -3.775146
 H         3.482306         1.574619        -3.556645
 H         4.444949         0.958526        -1.495964
 H         3.523620         2.273753        -0.680051
 H         2.861527        -0.606226        -0.319600
