19
Iteration:  2769
 C         0.194023        -0.658911        -0.243336
 C         1.031359         0.529920        -0.706292
 C         0.415758         1.532289        -1.652464
 C         1.348296         1.948657        -2.804671
 O         2.089232         3.137786        -2.592492
 C         2.774337         1.878802        -2.680060
 C         3.412753         1.255203        -1.472141
 C         2.540020         0.481965        -0.467673
 O         1.811285         1.279244         0.396279
 H         0.282229        -1.413794        -1.051335
 H         0.580350        -0.982464         0.723111
 H        -0.917874        -0.566578        -0.187298
 H        -0.575302         0.944288        -2.018348
 H         0.128494         2.410805        -1.101564
 H         0.919937         1.750881        -3.859085
 H         3.433576         1.721345        -3.637144
 H         4.082712         0.472427        -1.906446
 H         4.124182         1.940521        -0.883014
 H         2.969505        -0.411194        -0.011346
