19
Iteration:  2160
 C         0.301541        -0.730699        -0.086153
 C         0.983391         0.600550        -0.679352
 C         0.373854         1.368294        -1.854534
 C         1.296753         2.103792        -2.775553
 O         2.274163         3.153045        -2.332290
 C         2.800971         1.789202        -2.733547
 C         3.439099         1.117909        -1.553472
 C         2.479198         0.582781        -0.505839
 O         1.659307         1.379458         0.244659
 H         0.534055        -1.657512        -0.760210
 H         0.783272        -0.860039         0.996330
 H        -0.784350        -0.665391         0.329551
 H        -0.458218         0.722587        -2.373239
 H        -0.169766         2.195267        -1.430535
 H         0.851600         2.296462        -3.835650
 H         3.295313         1.713315        -3.719413
 H         4.124585         0.299845        -1.884267
 H         4.035845         1.896772        -1.048418
 H         2.789751        -0.286275        -0.001998
