19
Iteration:  1658charge 0 multiplicity 1
 C         0.214524        -0.569699        -0.162997
 C         1.119568         0.577175        -0.629080
 C         0.428046         1.292100        -1.825787
 C         1.241224         2.136406        -2.783047
 O         2.170002         3.158595        -2.349805
 C         2.738576         1.924795        -2.733294
 C         3.404442         1.021750        -1.653170
 C         2.565630         0.552219        -0.503312
 O         1.747934         1.359613         0.407915
 H        -0.037133        -0.447884         0.930792
 H        -0.770240        -0.813327        -0.653608
 H         0.861364        -1.580255        -0.358900
 H         0.136119         0.376673        -2.463655
 H        -0.582968         1.759428        -1.585085
 H         0.907653         2.223607        -3.751771
 H         3.161121         1.936217        -3.646158
 H         3.742822         0.072900        -2.105226
 H         4.305501         1.446471        -1.184449
 H         3.081150        -0.318236        -0.004938
