19
Iteration:  1643charge 0 multiplicity 1
 C         0.284723        -0.632661        -0.152518
 C         1.051454         0.578354        -0.687059
 C         0.363152         1.346039        -1.870676
 C         1.322783         2.115844        -2.735582
 O         2.137115         3.166239        -2.271457
 C         2.697876         1.714519        -2.753697
 C         3.455977         1.088996        -1.632515
 C         2.556714         0.551236        -0.495687
 O         1.762395         1.388390         0.364940
 H        -0.093666        -0.425941         0.790185
 H        -0.518144        -0.703998        -0.945024
 H         0.798096        -1.456155         0.034476
 H        -0.177850         0.709235        -2.520803
 H        -0.408740         2.035404        -1.334552
 H         0.764691         2.419884        -3.665778
 H         3.354212         1.805378        -3.725394
 H         3.916989         0.197882        -2.155425
 H         4.280923         1.830678        -1.478677
 H         2.935064        -0.280344         0.057963
