19
Iteration:  1424
 C         0.142366        -0.453322        -0.117771
 C         1.132170         0.535331        -0.646195
 C         0.397731         1.313046        -1.793174
 C         1.226458         2.136103        -2.710106
 O         2.151670         3.155329        -2.183782
 C         2.696587         1.864833        -2.717374
 C         3.446122         1.036713        -1.741512
 C         2.637581         0.447039        -0.628078
 O         1.843773         1.292735         0.280667
 H         0.508699        -1.502964         0.137384
 H        -0.483523         0.176525         0.692860
 H        -0.648513        -0.676222        -0.774485
 H        -0.227930         0.738256        -2.459765
 H        -0.363727         1.934354        -1.274248
 H         0.831118         2.433592        -3.658530
 H         3.114237         1.870270        -3.669489
 H         3.727448         0.143113        -2.308065
 H         4.339064         1.554516        -1.379504
 H         3.171357        -0.247040         0.012296
