19
Iteration:  1476charge 0 multiplicity 1
 C         0.240653        -0.533060         0.091933
 C         0.987118         0.602992        -0.688592
 C         0.382441         1.254678        -1.910508
 C         1.341772         2.091842        -2.741578
 O         2.184891         3.148132        -2.049196
 C         2.762804         2.038278        -2.645043
 C         3.400478         0.916636        -1.830709
 C         2.467516         0.409084        -0.654562
 O         1.818835         1.445883         0.167110
 H         0.635135        -1.551778        -0.288887
 H         0.608700        -0.530545         1.156322
 H        -0.805251        -0.599493         0.014252
 H         0.051410         0.524597        -2.656347
 H        -0.554885         1.871160        -1.569111
 H         0.857280         2.377395        -3.748869
 H         3.484873         2.309813        -3.535111
 H         3.649450         0.057764        -2.536306
 H         4.350444         1.324449        -1.410267
 H         2.706337        -0.492485        -0.144907
