19
Iteration:  3354
 C         0.164433        -0.537145        -0.351083
 C         1.132060         0.558897        -0.543239
 C         0.434549         1.652710        -1.595734
 C         1.272993         1.897145        -2.883296
 O         2.250210         3.104579        -2.898742
 C         2.761373         1.812774        -2.711236
 C         3.267089         1.543089        -1.283003
 C         2.555274         0.412300        -0.571233
 O         1.810327         0.929077         0.617608
 H        -0.039832        -1.020160        -1.337765
 H         0.605014        -1.230232         0.427677
 H        -0.787256        -0.199455         0.028931
 H        -0.641036         1.262301        -1.995539
 H         0.260418         2.523064        -0.976182
 H         0.921071         1.555764        -3.859172
 H         3.311558         1.325438        -3.551776
 H         4.322910         1.498260        -1.339563
 H         3.054867         2.417932        -0.619199
 H         3.014533        -0.612157        -0.408287
