19
Iteration:  1233charge 0 multiplicity 1
 C         0.067072        -0.312104         0.030384
 C         1.092062         0.515340        -0.714030
 C         0.395059         1.280410        -1.820394
 C         1.187882         2.272007        -2.639712
 O         2.155866         3.125083        -1.932353
 C         2.676045         1.986062        -2.754515
 C         3.403554         0.904851        -1.966953
 C         2.568741         0.352926        -0.739309
 O         2.073967         1.194206         0.228648
 H        -0.407301        -1.057505        -0.575939
 H         0.555766        -0.862499         0.789700
 H        -0.816878         0.456454         0.399118
 H        -0.019353         0.590757        -2.483667
 H        -0.516863         1.787371        -1.355738
 H         0.685798         2.715954        -3.614826
 H         3.127852         2.374837        -3.674141
 H         3.756728        -0.013145        -2.487806
 H         4.207627         1.505666        -1.541476
 H         3.113299        -0.456305        -0.319231
