19
Iteration:  1117
 C         0.141141        -0.554796        -0.207118
 C         1.098059         0.627838        -0.629042
 C         0.328276         1.483181        -1.562731
 C         1.165796         2.258002        -2.603840
 O         2.270654         3.114096        -2.131902
 C         2.631363         1.898413        -2.840556
 C         3.391247         0.890877        -1.875260
 C         2.549101         0.414915        -0.727412
 O         2.023167         1.247601         0.318787
 H         0.560221        -1.381202         0.459704
 H        -0.688286        -0.169795         0.463940
 H        -0.233172        -0.962909        -1.057940
 H        -0.232232         0.779850        -2.264898
 H        -0.472353         2.008508        -1.080561
 H         0.639104         2.745640        -3.372226
 H         3.144115         2.114296        -3.849706
 H         3.906808         0.037012        -2.450150
 H         4.191265         1.614393        -1.482210
 H         2.873522        -0.643044        -0.382806
