19
Iteration:  2781
 C         0.322160        -0.674682        -0.260144
 C         1.070317         0.591647        -0.595559
 C         0.462452         1.535790        -1.680470
 C         1.286156         1.974290        -2.855375
 O         2.098280         3.188016        -2.636016
 C         2.751246         1.851117        -2.623974
 C         3.467593         1.107165        -1.483732
 C         2.481374         0.518116        -0.529481
 O         1.685351         1.258676         0.467524
 H         0.445766        -1.498685        -1.029451
 H         0.722711        -1.133993         0.580775
 H        -0.712411        -0.330835        -0.010567
 H        -0.547809         1.114948        -2.229808
 H         0.079726         2.422854        -1.156737
 H         0.896560         1.886059        -3.887475
 H         3.350202         1.833346        -3.585390
 H         4.092704         0.340584        -1.929325
 H         4.163773         1.905136        -0.977478
 H         2.905444        -0.375623        -0.122033
