19
Iteration:  3192charge 0 multiplicity 1
 C         0.107430        -0.676835        -0.353298
 C         1.077489         0.488004        -0.616049
 C         0.550172         1.677077        -1.487882
 C         1.398081         1.931485        -2.764036
 O         2.086327         3.110547        -2.907375
 C         2.847178         1.843840        -2.780406
 C         3.382324         1.512696        -1.413802
 C         2.528033         0.493715        -0.523397
 O         1.697105         1.005998         0.587427
 H         0.024234        -1.349108        -1.217414
 H         0.345428        -1.173251         0.571554
 H        -1.008754        -0.300265        -0.257373
 H        -0.537340         1.501683        -1.654445
 H         0.669613         2.501983        -0.874524
 H         0.946970         1.500382        -3.670655
 H         3.443999         1.313806        -3.600644
 H         4.423366         1.082034        -1.364942
 H         3.368048         2.442006        -0.734961
 H         3.135472        -0.482625        -0.210815
