19
Iteration:  3271charge 0 multiplicity 1
 C         0.229763        -0.667497        -0.575602
 C         1.062023         0.575473        -0.573060
 C         0.508633         1.733693        -1.503553
 C         1.271978         1.890364        -2.797117
 O         2.107525         3.027440        -2.931423
 C         2.746522         1.706263        -2.706164
 C         3.423338         1.462653        -1.362483
 C         2.585876         0.574594        -0.410166
 O         1.690437         1.061666         0.685077
 H        -0.037165        -0.872878        -1.631481
 H         0.666698        -1.610480        -0.254702
 H        -0.758335        -0.449554         0.025125
 H        -0.516870         1.667578        -1.695004
 H         0.684115         2.664399        -0.936468
 H         0.799978         1.570173        -3.753344
 H         3.460254         1.518499        -3.491285
 H         4.423626         0.923157        -1.599704
 H         3.600896         2.394342        -0.833146
 H         3.002839        -0.399351        -0.140323
