19
Iteration:  2471
 C         0.253311        -0.681008        -0.195156
 C         1.081256         0.574020        -0.632123
 C         0.432660         1.419730        -1.760636
 C         1.306973         1.923425        -2.847443
 O         2.125741         3.078165        -2.400004
 C         2.820663         1.898413        -2.687407
 C         3.439893         1.131016        -1.506590
 C         2.488989         0.575773        -0.507773
 O         1.695975         1.471166         0.315909
 H        -0.353044        -1.032017        -0.989159
 H         1.004245        -1.587695         0.001489
 H        -0.477579        -0.665823         0.642682
 H        -0.446299         0.828921        -2.186789
 H         0.052213         2.287721        -1.312707
 H         0.980313         2.116806        -3.859205
 H         3.447844         1.882355        -3.606034
 H         3.733898         0.213948        -2.003047
 H         4.302977         1.577712        -0.979478
 H         2.756698        -0.347674        -0.103286
