19
Iteration:  4115
 C         0.139965        -0.645306        -0.298769
 C         1.117005         0.560662        -0.537164
 C         0.493748         1.489194        -1.673869
 C         1.314098         1.934921        -2.873131
 O         2.053976         3.177512        -2.771510
 C         2.839903         1.983254        -2.687471
 C         3.388470         1.245891        -1.394052
 C         2.548007         0.446335        -0.512958
 O         1.783224         1.184624         0.573392
 H         0.003578        -1.046249        -1.350637
 H         0.457936        -1.424169         0.367582
 H        -0.815785        -0.349196        -0.066437
 H        -0.398376         0.926472        -1.958291
 H         0.090461         2.414485        -1.249730
 H         0.787472         1.781399        -3.863037
 H         3.424210         1.692282        -3.539605
 H         4.153947         0.582295        -1.833621
 H         3.993991         2.048184        -0.948944
 H         2.850096        -0.448258        -0.046045
