19
Iteration:  3374charge 0 multiplicity 1
 C         0.113395        -0.584043        -0.326327
 C         1.084167         0.524660        -0.692697
 C         0.614506         1.662074        -1.535148
 C         1.305711         1.877176        -2.861985
 O         2.094540         3.099635        -2.809381
 C         2.815746         1.764091        -2.707746
 C         3.267702         1.477054        -1.311274
 C         2.534035         0.402974        -0.510025
 O         1.829514         1.028454         0.509424
 H        -0.042678        -1.325960        -1.209811
 H         0.463611        -1.163123         0.664580
 H        -0.899751        -0.215991        -0.104782
 H        -0.461244         1.609102        -1.847975
 H         0.652427         2.672081        -1.020489
 H         0.872977         1.924305        -3.859853
 H         3.457944         1.531744        -3.576225
 H         4.347922         1.585578        -1.204935
 H         2.984385         2.450338        -0.835208
 H         3.055590        -0.474995        -0.261387
