19
Iteration:   842
 C         0.207104        -0.292943         0.160851
 C         1.061421         0.577908        -0.735513
 C         0.361966         1.398953        -1.820414
 C         1.244243         2.244464        -2.676034
 O         2.073150         3.112806        -1.880965
 C         2.699299         2.093119        -2.590304
 C         3.298727         0.924023        -1.889320
 C         2.440479         0.204265        -0.975228
 O         2.177879         1.115237         0.094501
 H        -0.081891         0.250260         1.023818
 H        -0.686673        -0.618163        -0.282414
 H         0.865774        -1.132557         0.585014
 H        -0.177436         0.581744        -2.565821
 H        -0.464320         1.913150        -1.304014
 H         0.894752         2.762064        -3.598684
 H         3.312396         2.373180        -3.590286
 H         3.719455         0.267644        -2.652863
 H         4.203654         1.221585        -1.301933
 H         2.684172        -0.919921        -0.799380
