19
Iteration:   617charge 0 multiplicity 1
 C         0.096746        -0.443946         0.007134
 C         1.115203         0.458182        -0.709651
 C         0.386567         1.463014        -1.639415
 C         1.168473         2.356220        -2.533692
 O         2.206028         3.180244        -2.020971
 C         2.689045         1.985241        -2.817434
 C         3.376598         0.850177        -1.959762
 C         2.596726         0.253603        -0.761243
 O         1.975494         1.209989         0.129180
 H        -0.454413         0.164094         0.775887
 H        -0.541248        -0.919615        -0.766702
 H         0.476026        -1.160253         0.524675
 H        -0.265057         0.810083        -2.406762
 H        -0.185657         2.096054        -0.930406
 H         0.634132         2.766107        -3.387743
 H         3.233284         2.195289        -3.694089
 H         3.845045         0.022612        -2.525203
 H         4.183199         1.423091        -1.456544
 H         3.064169        -0.564445        -0.281184
