19
Iteration:    70
 C         0.113448        -0.692223        -0.093694
 C         1.043502         0.428128        -0.625186
 C         0.452344         1.575199        -1.478471
 C         1.223859         2.329583        -2.562528
 O         2.348633         3.259068        -2.345186
 C         2.601762         1.933592        -2.843192
 C         3.374442         1.001858        -1.864152
 C         2.510858         0.369716        -0.744409
 O         1.931464         1.148763         0.284561
 H         0.624954        -1.223294         0.859988
 H        -0.873516        -0.242723         0.195642
 H        -0.215165        -1.362240        -0.856943
 H        -0.478995         1.273175        -1.959747
 H         0.100501         2.343154        -0.675207
 H         0.492511         2.678964        -3.357626
 H         3.074234         1.805756        -3.790667
 H         3.643709         0.118029        -2.401942
 H         4.345649         1.407897        -1.468809
 H         3.011449        -0.523421        -0.424973
