19
Iteration:   205charge 0 multiplicity 1
 C         0.335777        -0.621051        -0.041755
 C         1.048923         0.678008        -0.613656
 C         0.249915         1.604608        -1.621667
 C         1.169806         2.339299        -2.594071
 O         2.398768         3.078243        -2.105165
 C         2.686267         1.880361        -2.793638
 C         3.261968         0.950727        -1.830291
 C         2.426534         0.313769        -0.868939
 O         1.987607         1.208016         0.242914
 H         0.836118        -0.934262         0.819456
 H        -0.817590        -0.525811         0.179691
 H         0.375351        -1.530880        -0.919684
 H        -0.098149         0.836328        -2.435256
 H        -0.658717         2.141418        -1.257290
 H         0.614184         2.937886        -3.303568
 H         3.017625         2.064152        -3.794710
 H         3.713016         0.141423        -2.490220
 H         4.124999         1.440659        -1.429457
 H         2.611981        -0.747511        -0.582281
