19
Iteration:  1033
 C         0.145348        -0.534317        -0.022287
 C         1.033427         0.529320        -0.667485
 C         0.262906         1.635254        -1.504436
 C         1.206158         2.280325        -2.647137
 O         2.295771         3.196914        -2.343768
 C         2.665858         1.945635        -2.818437
 C         3.371131         1.134127        -1.745771
 C         2.523617         0.212078        -0.895483
 O         2.079808         0.943866         0.317561
 H        -0.203738        -0.043520         0.960316
 H        -0.671054        -0.826931        -0.744385
 H         0.636693        -1.401648         0.332838
 H        -0.531777         1.155646        -2.057326
 H        -0.192652         2.296269        -0.726183
 H         0.582880         2.684671        -3.441651
 H         3.045883         1.903029        -3.884383
 H         4.228495         0.629492        -2.173872
 H         3.789867         1.825133        -1.043661
 H         2.856957        -0.765175        -0.582962
