19
Iteration:   498charge 0 multiplicity 1
 C         0.021500        -0.357817         0.021657
 C         1.106657         0.525856        -0.615091
 C         0.370159         1.426184        -1.665322
 C         1.224544         2.297109        -2.589942
 O         2.193475         3.185019        -2.092002
 C         2.649307         2.032238        -2.813746
 C         3.331059         1.006306        -1.900946
 C         2.507746         0.255884        -0.843166
 O         2.184957         0.979183         0.214644
 H        -0.992542         0.206799         0.256142
 H        -0.198847        -1.291210        -0.663915
 H         0.373544        -0.698508         1.020987
 H        -0.302194         0.839425        -2.257255
 H        -0.283050         2.131481        -1.130720
 H         0.616632         2.744580        -3.414056
 H         3.253547         2.332073        -3.765193
 H         3.911504         0.291551        -2.457322
 H         4.172402         1.494747        -1.311187
 H         2.915150        -0.767208        -0.744116
