19
Iteration:  2208charge 0 multiplicity 1
 C         0.133246        -0.513404        -0.093756
 C         1.078370         0.466232        -0.689539
 C         0.422582         1.343048        -1.859849
 C         1.367075         1.980203        -2.850766
 O         2.048970         3.227549        -2.424821
 C         2.815450         1.874378        -2.677080
 C         3.498633         1.158003        -1.528930
 C         2.537052         0.502073        -0.535243
 O         1.771599         1.276650         0.421264
 H         0.006160        -1.235168        -0.929246
 H         0.444393        -1.009896         0.764466
 H        -0.858892        -0.018243         0.042174
 H        -0.295394         0.752826        -2.467737
 H        -0.226601         2.200596        -1.408077
 H         0.987466         2.012711        -3.841707
 H         3.410207         1.916020        -3.623020
 H         4.001957         0.308436        -2.004231
 H         4.261846         1.834798        -1.060101
 H         2.946781        -0.403986         0.021740
