19
Iteration:  4323charge 0 multiplicity 1
 C         0.051304        -0.344016        -0.070541
 C         1.114596         0.565344        -0.680895
 C         0.496115         1.033758        -2.023251
 C         1.383254         2.029903        -2.793338
 O         1.933695         3.073034        -1.990252
 C         2.811173         2.052275        -2.590609
 C         3.468131         0.979468        -1.738953
 C         2.559524         0.515652        -0.560527
 O         1.873680         1.488454         0.195821
 H         0.014862        -1.370613        -0.565747
 H         0.256928        -0.730758         1.030477
 H        -0.940791         0.019608        -0.120536
 H         0.483129         0.025935        -2.719027
 H        -0.442795         1.448452        -1.857798
 H         0.864591         2.403382        -3.744922
 H         3.426592         2.354292        -3.427690
 H         3.592461         0.135030        -2.389680
 H         4.435690         1.278019        -1.473999
 H         2.819096        -0.374992         0.100350
