19
Iteration:  1831
 C         0.309020        -0.537105        -0.077887
 C         0.986639         0.550181        -0.679914
 C         0.361127         1.283345        -1.890374
 C         1.354370         1.945749        -2.714003
 O         2.082399         2.998246        -2.188760
 C         2.859907         1.813029        -2.697315
 C         3.539308         1.211473        -1.542993
 C         2.459867         0.584593        -0.653028
 O         1.698024         1.475197         0.160893
 H        -0.360928        -0.912483        -0.805345
 H         0.978239        -1.268195         0.473252
 H        -0.293594        -0.261033         0.733278
 H        -0.159143         0.634278        -2.490874
 H        -0.377692         2.018352        -1.594777
 H         0.838042         2.263698        -3.789849
 H         3.498261         1.865218        -3.733434
 H         4.167031         0.351034        -1.815339
 H         4.025938         1.904272        -0.849955
 H         2.786542        -0.234228        -0.004308
