19
Iteration:  2182charge 0 multiplicity 1
 C         0.269817        -0.684438        -0.064069
 C         0.991644         0.537648        -0.637822
 C         0.370488         1.393681        -1.771127
 C         1.347651         2.065272        -2.757309
 O         2.256313         3.203906        -2.513291
 C         2.895867         1.948414        -2.708813
 C         3.351455         1.125888        -1.522027
 C         2.411193         0.414100        -0.637155
 O         1.683679         1.376170         0.369550
 H         0.555990        -1.565193        -0.801671
 H         0.752148        -0.844997         0.997110
 H        -0.786617        -0.617378         0.378181
 H         0.057281         0.539158        -2.527209
 H        -0.506128         1.938674        -1.525052
 H         0.819592         2.175505        -3.798722
 H         3.560901         1.864526        -3.605566
 H         3.971007         0.376851        -2.074635
 H         4.033964         1.717201        -0.894083
 H         2.877648        -0.311921        -0.059509
