19
Iteration:   976
 C         0.106449        -0.608681        -0.128606
 C         1.034663         0.521006        -0.638705
 C         0.392301         1.662945        -1.472617
 C         1.258923         2.185992        -2.637078
 O         2.124016         3.325257        -2.213740
 C         2.675838         1.957227        -2.730844
 C         3.396605         0.901745        -1.968906
 C         2.483447         0.325044        -0.742613
 O         2.134028         1.092233         0.304654
 H        -0.986212        -0.317158        -0.341489
 H         0.170525        -1.552802        -0.783267
 H         0.326989        -0.909944         0.833544
 H        -0.529333         1.417673        -1.886205
 H         0.260980         2.462606        -0.759160
 H         0.720094         2.424325        -3.523337
 H         3.122985         2.151426        -3.826961
 H         3.400221         0.045245        -2.674319
 H         4.413854         1.106529        -1.659271
 H         2.841496        -0.699085        -0.381465
