19
Iteration:  1836
 C         0.295380        -0.537445        -0.027103
 C         1.001652         0.544661        -0.710485
 C         0.290454         1.301145        -1.855184
 C         1.347290         1.923677        -2.758469
 O         2.116208         3.016126        -2.220527
 C         2.879799         1.833349        -2.713447
 C         3.535477         1.204404        -1.535891
 C         2.521254         0.571764        -0.654126
 O         1.658891         1.443537         0.178141
 H        -0.370915        -0.931389        -0.911094
 H         0.930764        -1.354957         0.270900
 H        -0.321599        -0.110558         0.889202
 H        -0.210930         0.633831        -2.690261
 H        -0.431465         2.108613        -1.442018
 H         0.882885         2.204214        -3.606329
 H         3.462228         1.936028        -3.568513
 H         4.388728         0.483711        -1.721745
 H         3.946569         2.005824        -0.871995
 H         2.898233        -0.279951        -0.004694
