19
Iteration:   991
 C         0.064773        -0.471462        -0.208547
 C         1.103415         0.572730        -0.582933
 C         0.396091         1.574638        -1.467757
 C         1.175276         2.225417        -2.567810
 O         2.151198         3.223489        -2.294934
 C         2.685812         2.041507        -2.807262
 C         3.359194         0.945588        -1.882803
 C         2.576780         0.242822        -0.827397
 O         2.114874         1.020185         0.390751
 H        -0.938079        -0.084039        -0.115843
 H         0.191497        -1.284831        -0.908059
 H         0.219452        -0.900429         0.821221
 H        -0.676088         1.081228        -1.818164
 H        -0.011336         2.486405        -0.827317
 H         0.611695         2.435872        -3.506422
 H         3.128486         2.120914        -3.762418
 H         3.713328         0.177299        -2.565403
 H         4.265171         1.373095        -1.443692
 H         2.953763        -0.733578        -0.654087
