19
Iteration:  2519charge 0 multiplicity 1
 C         0.232632        -0.607223        -0.082269
 C         1.024104         0.528843        -0.604765
 C         0.434566         1.323170        -1.801858
 C         1.300259         2.082804        -2.816118
 O         2.226177         3.115090        -2.402182
 C         2.822526         1.885817        -2.726571
 C         3.349528         1.181572        -1.601782
 C         2.493969         0.510460        -0.533536
 O         1.718737         1.345097         0.325777
 H         0.247826        -1.608267        -0.698483
 H         0.628755        -0.889992         0.961562
 H        -0.873461        -0.413466        -0.026524
 H         0.026016         0.595829        -2.442210
 H        -0.406792         2.045791        -1.495190
 H         0.796006         2.400543        -3.735163
 H         3.446697         1.827494        -3.635634
 H         3.993276         0.414243        -2.108933
 H         4.108073         1.847006        -1.007844
 H         3.059293        -0.293422         0.025563
