19
Iteration:  4085
 C         0.272995        -0.702685        -0.235987
 C         1.036069         0.552547        -0.720467
 C         0.422825         1.579575        -1.600545
 C         1.357140         1.896269        -2.784226
 O         2.093824         3.113314        -2.614915
 C         2.855434         1.902043        -2.695475
 C         3.481047         1.216055        -1.472499
 C         2.481330         0.591671        -0.573452
 O         1.618434         1.239176         0.437460
 H        -0.033847        -1.327988        -1.133532
 H         0.995182        -1.440714         0.317690
 H        -0.570861        -0.419766         0.448766
 H        -0.523774         1.244747        -1.853197
 H         0.324809         2.618468        -0.951183
 H         0.953592         1.744175        -3.807189
 H         3.405328         1.695514        -3.588063
 H         4.178226         0.345003        -1.741416
 H         4.179151         1.966700        -1.073766
 H         2.840777        -0.340334        -0.180866
