19
Iteration:  1747charge 0 multiplicity 1
 C         0.088734        -0.461115         0.090908
 C         1.066681         0.573555        -0.715876
 C         0.404483         1.098765        -2.022858
 C         1.315272         2.047258        -2.810184
 O         2.036616         3.059130        -2.097040
 C         2.825718         1.974397        -2.686221
 C         3.503565         1.125904        -1.582508
 C         2.568244         0.472804        -0.610521
 O         1.818038         1.462380         0.134778
 H         0.698836        -1.379260         0.345883
 H        -0.023513        -0.254623         1.116032
 H        -0.920413        -0.522899        -0.474126
 H         0.159580         0.114204        -2.620231
 H        -0.561509         1.673329        -1.785069
 H         0.940810         2.380084        -3.692372
 H         3.460774         2.265459        -3.414383
 H         4.072566         0.332129        -2.115643
 H         4.316169         1.731147        -1.133524
 H         2.943430        -0.506915        -0.171217
