19
Iteration:  2951
 C         0.172368        -0.436181        -0.020632
 C         1.118366         0.556453        -0.743037
 C         0.475724         1.089235        -2.034077
 C         1.315037         2.034772        -2.802136
 O         2.076931         2.944361        -1.918956
 C         2.764760         1.977227        -2.587086
 C         3.459704         0.975578        -1.736263
 C         2.556038         0.592128        -0.569802
 O         1.695786         1.583450         0.098755
 H        -0.123468        -1.250524        -0.651701
 H         0.836321        -0.892224         0.831255
 H        -0.705128         0.062736         0.475928
 H         0.170259         0.223256        -2.753440
 H        -0.595883         1.546419        -1.769380
 H         0.823979         2.528754        -3.636108
 H         3.448660         2.323720        -3.382823
 H         4.059356         0.150887        -2.237476
 H         4.313514         1.657824        -1.335062
 H         3.095622        -0.113511         0.115376
