19
Iteration:   458charge 0 multiplicity 1
 C         0.154660        -0.447480        -0.023619
 C         1.037776         0.604570        -0.668823
 C         0.358343         1.594789        -1.568269
 C         1.235080         2.227388        -2.669575
 O         2.098869         3.266209        -2.220405
 C         2.706180         1.997876        -2.746033
 C         3.374107         0.953000        -1.800425
 C         2.559190         0.214934        -0.842082
 O         2.099431         0.971048         0.280771
 H        -0.249457        -0.166209         0.844232
 H        -0.625601        -0.629285        -0.684271
 H         0.715254        -1.421807         0.169146
 H        -0.426276         0.970425        -2.073916
 H        -0.044291         2.454900        -0.998508
 H         0.593583         2.515877        -3.511430
 H         3.218329         2.166028        -3.665169
 H         3.592064         0.127470        -2.529726
 H         4.257161         1.445718        -1.405959
 H         2.740303        -0.854206        -0.667893
