19
Iteration:  4453
 C         0.142817        -0.644329        -0.377357
 C         1.082877         0.594508        -0.644796
 C         0.384383         1.481069        -1.615825
 C         1.336288         1.904346        -2.769172
 O         2.124028         3.034628        -2.420943
 C         2.829405         1.790209        -2.733275
 C         3.460066         1.248731        -1.564884
 C         2.511308         0.587153        -0.514256
 O         1.760424         1.361025         0.412775
 H         0.480276        -1.260377        -1.272095
 H         0.456469        -1.291506         0.568527
 H        -0.886079        -0.645645        -0.407647
 H        -0.472032         0.958159        -2.024416
 H        -0.038591         2.536457        -1.352390
 H         0.893413         1.895534        -3.752713
 H         3.430262         1.895279        -3.618215
 H         4.302498         0.548715        -1.848855
 H         3.901973         1.986370        -0.888998
 H         2.850014        -0.343092        -0.021624
