19
Iteration:  4053charge 0 multiplicity 1
 C         0.243141        -0.678158        -0.224917
 C         1.060803         0.573462        -0.679999
 C         0.340112         1.460370        -1.766492
 C         1.285670         2.061680        -2.817263
 O         2.220478         3.087638        -2.462843
 C         2.700582         1.743553        -2.718528
 C         3.421374         1.248508        -1.469335
 C         2.527721         0.535396        -0.481154
 O         1.793628         1.313912         0.365227
 H        -0.061489        -1.258486        -1.161190
 H         0.948911        -1.387949         0.434514
 H        -0.708515        -0.466332         0.377422
 H        -0.303647         0.799020        -2.241625
 H        -0.318474         2.269310        -1.140806
 H         1.041456         2.297414        -3.837488
 H         3.211825         1.675443        -3.679955
 H         4.323720         0.585452        -1.475996
 H         3.630687         2.213949        -0.981009
 H         3.094530        -0.340408        -0.229780
