19
Iteration:  3716charge 0 multiplicity 1
 C         0.224204        -0.603565        -0.200237
 C         1.072513         0.547839        -0.667760
 C         0.434363         1.426773        -1.704149
 C         1.249801         1.988090        -2.772008
 O         2.172471         3.260668        -2.705754
 C         2.808645         1.958947        -2.673225
 C         3.498427         1.184905        -1.453847
 C         2.533517         0.455790        -0.504560
 O         1.649007         1.183158         0.452642
 H        -0.210983        -1.259662        -0.918831
 H         0.713652        -1.243883         0.593636
 H        -0.622242        -0.094189         0.362201
 H        -0.112491         0.814981        -2.336360
 H        -0.153629         2.253813        -1.263268
 H         0.825432         1.770459        -3.715066
 H         3.393256         1.758696        -3.582665
 H         3.974538         0.292570        -1.903673
 H         4.309816         1.734365        -0.877436
 H         2.914821        -0.477246         0.006232
