19
Iteration:   202
 C         0.337465        -0.616347        -0.055656
 C         1.033086         0.670097        -0.615899
 C         0.262773         1.599849        -1.625489
 C         1.180912         2.356950        -2.602890
 O         2.387214         3.083999        -2.140631
 C         2.678187         1.879854        -2.769081
 C         3.278697         0.957048        -1.843339
 C         2.426796         0.288380        -0.872441
 O         1.980969         1.191386         0.274826
 H         0.877330        -1.010184         0.903147
 H        -0.757761        -0.450514         0.195439
 H         0.328258        -1.431832        -0.848364
 H        -0.093712         0.876070        -2.393310
 H        -0.684676         2.121558        -1.188911
 H         0.529749         3.006857        -3.360249
 H         3.109715         2.098558        -3.833379
 H         3.652732         0.172422        -2.489723
 H         4.178017         1.473508        -1.381283
 H         2.644760        -0.742593        -0.512677
