19
Iteration:  2895charge 0 multiplicity 1
 C         0.112980        -0.410033         0.128465
 C         1.011898         0.539539        -0.639687
 C         0.511905         1.186436        -1.986281
 C         1.442653         1.963419        -2.929386
 O         1.944427         3.196985        -2.199050
 C         2.865597         2.097913        -2.676378
 C         3.396840         1.153736        -1.585190
 C         2.551112         0.379387        -0.657259
 O         1.799152         1.256230         0.268216
 H         0.122783        -1.389177        -0.396463
 H         0.611594        -0.681347         1.186224
 H        -0.888932        -0.025895         0.223736
 H         0.270407         0.266831        -2.699376
 H        -0.519495         1.813868        -1.854457
 H         1.076473         2.241594        -3.836080
 H         3.514558         2.406263        -3.416888
 H         3.778790         0.308075        -2.249784
 H         4.415830         1.563484        -1.149639
 H         3.034468        -0.526317        -0.150033
