19
Iteration:  4298charge 0 multiplicity 1
 C         0.151556        -0.505408         0.100936
 C         1.019754         0.502907        -0.653153
 C         0.458536         1.114219        -2.017504
 C         1.449851         2.084594        -2.820715
 O         2.063009         3.184370        -2.151651
 C         2.890739         2.122769        -2.616832
 C         3.363449         1.005114        -1.691111
 C         2.486986         0.447621        -0.606267
 O         1.757163         1.399496         0.177642
 H         0.238797        -1.560028        -0.156934
 H         0.482567        -0.494170         1.127083
 H        -0.999342        -0.262543         0.126690
 H         0.299754         0.248197        -2.777230
 H        -0.466491         1.660115        -1.850345
 H         0.908687         2.437248        -3.666766
 H         3.657973         2.339120        -3.414988
 H         3.693376         0.135866        -2.333226
 H         4.269285         1.401415        -1.233095
 H         2.975416        -0.350365         0.031993
