19
Iteration:  3031charge 0 multiplicity 1
 C         0.150313        -0.571703        -0.205322
 C         1.067834         0.535567        -0.657612
 C         0.384611         1.389263        -1.724171
 C         1.342449         1.924094        -2.819026
 O         2.110720         3.114808        -2.420824
 C         2.807294         1.894849        -2.671529
 C         3.529542         1.288566        -1.525170
 C         2.568643         0.514470        -0.594731
 O         1.735487         1.268192         0.365280
 H        -0.105004        -1.364636        -0.925869
 H         0.364801        -0.869667         0.768844
 H        -0.858265        -0.023756        -0.081683
 H        -0.241970         0.615731        -2.203892
 H        -0.326167         2.193312        -1.137443
 H         0.967665         1.767937        -3.910159
 H         3.312812         1.807825        -3.719132
 H         4.304394         0.467814        -1.839896
 H         3.899736         2.079451        -0.940670
 H         2.973462        -0.353155        -0.138701
