19
Iteration:  1094
 C         0.162142        -0.499947        -0.227729
 C         1.132404         0.606570        -0.626349
 C         0.452398         1.561680        -1.567005
 C         1.201620         2.162619        -2.679472
 O         2.140811         3.191447        -2.197995
 C         2.633376         1.916610        -2.726906
 C         3.325968         0.943365        -1.853118
 C         2.553909         0.341820        -0.722717
 O         2.020758         1.140249         0.367996
 H         0.359360        -0.891562         0.790351
 H        -0.895672        -0.187424        -0.144140
 H         0.294314        -1.258854        -0.967369
 H        -0.529447         1.134126        -2.046279
 H         0.066592         2.398496        -0.964335
 H         0.711532         2.543388        -3.540495
 H         3.034139         1.889385        -3.749240
 H         3.457416         0.075412        -2.588880
 H         4.365120         1.365177        -1.636166
 H         3.056072        -0.619409        -0.410677
