19
Iteration:  1655charge 0 multiplicity 1
 C         0.231002        -0.585536        -0.155593
 C         1.121637         0.578017        -0.645938
 C         0.402616         1.294355        -1.842763
 C         1.266097         2.149016        -2.765284
 O         2.154053         3.164442        -2.337731
 C         2.727475         1.865948        -2.727935
 C         3.407717         1.042270        -1.664377
 C         2.580147         0.542277        -0.495160
 O         1.747177         1.370539         0.416578
 H        -0.081474        -0.431130         0.794005
 H        -0.763523        -0.884439        -0.673190
 H         0.782351        -1.441373        -0.333831
 H         0.111666         0.469044        -2.459582
 H        -0.608947         1.841473        -1.555276
 H         0.924047         2.290220        -3.795349
 H         3.213480         1.858959        -3.736072
 H         3.781802         0.064546        -2.082890
 H         4.334870         1.489625        -1.219186
 H         3.082176        -0.290862        -0.014962
