19
Iteration:  2702
 C         0.167456        -0.548745        -0.009363
 C         1.023899         0.522327        -0.690583
 C         0.414265         1.302460        -1.898146
 C         1.345110         2.035318        -2.952351
 O         2.066483         3.246686        -2.476266
 C         2.824487         1.959655        -2.613402
 C         3.434139         1.171976        -1.506776
 C         2.502001         0.399448        -0.544728
 O         1.828719         1.297380         0.424650
 H        -0.161997        -1.113516        -0.820473
 H         0.898124        -1.149466         0.619360
 H        -0.727024        -0.257177         0.539076
 H        -0.068155         0.355699        -2.414159
 H        -0.282208         1.866006        -1.337057
 H         1.034776         2.037979        -4.060166
 H         3.508957         2.024813        -3.571318
 H         4.094519         0.388292        -1.967867
 H         4.100894         1.748854        -0.855928
 H         2.776132        -0.556444        -0.110480
