19
Iteration:   561charge 0 multiplicity 1
 C         0.370456        -0.630821         0.011323
 C         1.038011         0.670624        -0.625852
 C         0.414410         1.510238        -1.794609
 C         1.249901         2.405886        -2.622283
 O         2.293224         3.058116        -1.891595
 C         2.637110         1.995976        -2.747608
 C         3.201613         0.737385        -2.045510
 C         2.451174         0.346180        -0.798199
 O         1.952715         1.325990         0.236864
 H        -0.777899        -0.491378         0.078255
 H         0.495025        -1.570275        -0.522447
 H         0.806940        -0.762723         0.888802
 H        -0.530132         1.052467        -2.304005
 H        -0.425632         2.108043        -1.338935
 H         0.770533         2.934766        -3.454927
 H         3.210160         2.177493        -3.603157
 H         3.227003        -0.068224        -2.818708
 H         4.288001         0.839056        -1.930920
 H         2.697592        -0.635211        -0.418388
