19
Iteration:   543
 C         0.295143        -0.513285         0.008876
 C         1.022249         0.523783        -0.761865
 C         0.277793         1.542299        -1.666048
 C         1.252445         2.311930        -2.570150
 O         2.279660         3.116790        -1.917455
 C         2.691034         1.984281        -2.711131
 C         3.267146         0.806967        -2.016529
 C         2.459367         0.346525        -0.777214
 O         1.994645         1.243770         0.103317
 H        -0.805601        -0.383401         0.078008
 H         0.541519        -1.551508        -0.449849
 H         0.693270        -0.486430         1.125278
 H        -0.415777         0.974334        -2.237081
 H        -0.298249         2.235370        -1.074026
 H         0.833583         2.877059        -3.417213
 H         3.262632         2.216476        -3.696025
 H         3.309648        -0.070684        -2.626268
 H         4.343856         1.007833        -1.804839
 H         3.008235        -0.468417        -0.325401
