19
Iteration:   967charge 0 multiplicity 1
 C         0.163135        -0.684871        -0.106467
 C         1.064802         0.529508        -0.690297
 C         0.486293         1.728916        -1.464433
 C         1.231341         2.240567        -2.644502
 O         2.144583         3.262164        -2.180150
 C         2.691809         1.984193        -2.688888
 C         3.306246         0.838991        -1.946351
 C         2.513315         0.315140        -0.820640
 O         2.031466         1.169277         0.272988
 H        -0.932837        -0.360747        -0.032013
 H         0.314614        -1.668028        -0.636452
 H         0.317248        -0.859004         0.886737
 H        -0.561839         1.257318        -1.784776
 H         0.118829         2.580958        -0.795821
 H         0.799665         2.440800        -3.602979
 H         3.133276         2.024706        -3.744582
 H         3.378503         0.025038        -2.677501
 H         4.298238         1.039099        -1.633008
 H         2.881978        -0.658162        -0.509092
