19
Iteration:  3868
 C         0.250162        -0.498966        -0.118657
 C         1.047583         0.650578        -0.728982
 C         0.367410         1.367066        -1.841061
 C         1.344109         1.998986        -2.834271
 O         2.043668         3.075926        -2.291579
 C         2.801004         1.858392        -2.654192
 C         3.534282         1.131655        -1.516997
 C         2.486807         0.386981        -0.553839
 O         1.763808         1.381085         0.234235
 H         0.087882        -1.263817        -0.801771
 H         0.894583        -0.989387         0.660725
 H        -0.674472        -0.213433         0.373841
 H        -0.369100         0.574553        -2.385954
 H        -0.325399         2.012180        -1.414393
 H         0.908019         2.085484        -3.834914
 H         3.390140         2.143623        -3.559296
 H         4.403291         0.500861        -1.668728
 H         3.899493         1.888138        -0.768894
 H         2.922173        -0.633935        -0.099619
