19
Iteration:   214charge 0 multiplicity 1
 C         0.293846        -0.611439        -0.067553
 C         0.975097         0.660633        -0.641116
 C         0.275407         1.544119        -1.646219
 C         1.244084         2.294073        -2.521047
 O         2.387011         3.086327        -2.009330
 C         2.593231         1.921105        -2.829772
 C         3.304410         0.889253        -1.907036
 C         2.409488         0.380950        -0.819947
 O         2.029086         1.259643         0.180308
 H         0.845938        -0.848458         0.869648
 H        -0.842023        -0.611563         0.163243
 H         0.586685        -1.497151        -0.788236
 H        -0.336235         0.809480        -2.259355
 H        -0.510420         2.294078        -1.247003
 H         0.808121         2.819366        -3.456021
 H         3.023567         1.915974        -3.897605
 H         3.818670         0.031068        -2.356414
 H         4.118308         1.439850        -1.365166
 H         2.730903        -0.678351        -0.585553
