19
Iteration:  3471charge 0 multiplicity 1
 C         0.237123        -0.712053        -0.332816
 C         1.031551         0.549493        -0.692773
 C         0.385488         1.571030        -1.562257
 C         1.319750         1.964675        -2.696871
 O         2.153377         3.041926        -2.588332
 C         2.810874         1.725573        -2.713347
 C         3.531178         1.330098        -1.455458
 C         2.475840         0.604309        -0.558644
 O         1.689894         1.254067         0.394584
 H        -0.154599        -1.233989        -1.234039
 H         0.765091        -1.350879         0.470605
 H        -0.722783        -0.403154         0.007404
 H        -0.473966         1.250689        -2.035285
 H         0.028073         2.528450        -0.945621
 H         0.745982         2.073507        -3.693758
 H         3.373893         1.598791        -3.642446
 H         4.356977         0.573019        -1.661383
 H         4.107659         2.227453        -1.071854
 H         3.013413        -0.253300        -0.337669
