19
Iteration:   461charge 0 multiplicity 1
 C         0.179648        -0.422758        -0.027011
 C         1.037469         0.621937        -0.655824
 C         0.378173         1.597446        -1.597808
 C         1.209644         2.230254        -2.660688
 O         2.094043         3.269992        -2.216284
 C         2.699201         1.992194        -2.733678
 C         3.369865         0.946182        -1.827047
 C         2.577771         0.210174        -0.848084
 O         2.087812         0.940856         0.301462
 H        -0.328220        -0.017940         0.931284
 H        -0.601210        -0.708799        -0.734172
 H         0.721289        -1.354711         0.166821
 H        -0.423113         0.879313        -2.076925
 H        -0.097091         2.447166        -1.040839
 H         0.688288         2.518292        -3.578495
 H         3.215097         2.187593        -3.634649
 H         3.622107         0.080983        -2.487238
 H         4.202932         1.484036        -1.379543
 H         2.717037        -0.849505        -0.710433
