19
Iteration:  1379
 C         0.247527        -0.541838         0.125457
 C         0.987137         0.562192        -0.686354
 C         0.318392         1.549580        -1.725330
 C         1.323019         2.078088        -2.798879
 O         2.138137         3.229182        -2.331162
 C         2.812973         1.927412        -2.656493
 C         3.428767         1.087267        -1.630068
 C         2.472029         0.335286        -0.787425
 O         1.869810         1.124777         0.200059
 H         0.815349        -0.761119         1.104186
 H        -0.915210        -0.378644         0.059426
 H         0.370615        -1.523567        -0.232579
 H        -0.423878         0.984528        -2.204476
 H        -0.143305         2.456881        -1.227656
 H         0.932335         2.241778        -3.815285
 H         3.481642         2.150154        -3.383373
 H         3.933150         0.281503        -2.154317
 H         4.070055         1.725386        -1.025446
 H         2.711591        -0.667727        -0.508134
