19
Iteration:  4745charge 0 multiplicity 1
 C         0.111309        -0.662598        -0.309507
 C         1.039267         0.616996        -0.606445
 C         0.356748         1.551811        -1.661290
 C         1.280091         1.960927        -2.824499
 O         2.216272         3.110746        -2.651839
 C         2.787088         1.772420        -2.719699
 C         3.464586         1.367799        -1.413584
 C         2.492900         0.553133        -0.540563
 O         1.886450         1.148308         0.545646
 H         0.412589        -1.308197        -1.116819
 H         0.277691        -1.398273         0.451687
 H        -0.990573        -0.461413        -0.594904
 H        -0.504347         0.820820        -2.098394
 H        -0.252157         2.314929        -1.158760
 H         0.819783         2.050140        -3.782392
 H         3.284878         1.352170        -3.668303
 H         4.326533         0.805526        -1.630109
 H         3.687067         2.302153        -0.894599
 H         2.955875        -0.398562        -0.285510
