19
Iteration:  1071
 C         0.163863        -0.598389        -0.085150
 C         1.028797         0.483620        -0.664659
 C         0.360094         1.690904        -1.493651
 C         1.241094         2.192940        -2.670154
 O         2.107354         3.267152        -2.330280
 C         2.776917         2.021337        -2.761800
 C         3.418947         0.954291        -1.848234
 C         2.486191         0.257703        -0.741120
 O         2.012509         1.070075         0.331672
 H         0.222268        -0.503901         0.970488
 H        -0.886806        -0.432768        -0.241953
 H         0.480606        -1.619180        -0.436890
 H        -0.737545         1.455455        -1.963238
 H         0.235987         2.609348        -0.846670
 H         0.772240         2.302348        -3.660038
 H         3.283355         2.149013        -3.705781
 H         3.706820         0.137857        -2.563497
 H         4.368017         1.318942        -1.355630
 H         2.968647        -0.694989        -0.428333
