19
Iteration:  3099
 C         0.190072        -0.755614        -0.283693
 C         1.020300         0.508225        -0.669735
 C         0.433864         1.592851        -1.492907
 C         1.350421         2.031875        -2.717412
 O         2.187141         3.140600        -2.871947
 C         2.792342         1.868647        -2.747840
 C         3.496019         1.340864        -1.364571
 C         2.531167         0.556812        -0.493700
 O         1.653451         1.132373         0.445884
 H        -0.210248        -1.313077        -1.159477
 H         0.886185        -1.335332         0.351557
 H        -0.625751        -0.556751         0.319635
 H        -0.412245         1.086534        -1.933174
 H         0.002676         2.523404        -0.888799
 H         0.891903         1.757612        -3.687032
 H         3.221937         1.421045        -3.606529
 H         4.294554         0.701367        -1.751028
 H         3.897156         2.163483        -0.823061
 H         2.869406        -0.389431        -0.165868
