19
Iteration:   996charge 0 multiplicity 1
 C         0.079590        -0.451531        -0.197110
 C         1.169826         0.590098        -0.577401
 C         0.410913         1.598012        -1.450581
 C         1.146873         2.226997        -2.596797
 O         2.163735         3.198319        -2.296813
 C         2.668180         2.018958        -2.787480
 C         3.344939         0.994841        -1.882164
 C         2.550735         0.244880        -0.843385
 O         2.089002         0.986696         0.385527
 H        -0.939369         0.009375        -0.172173
 H        -0.025755        -1.295950        -0.935731
 H         0.293617        -0.955162         0.800921
 H        -0.353837         1.040271        -1.826399
 H        -0.088409         2.308279        -0.859223
 H         0.603769         2.514474        -3.494049
 H         3.118955         2.017515        -3.844223
 H         3.800832         0.210202        -2.545051
 H         4.197667         1.462686        -1.287766
 H         2.946326        -0.793200        -0.618018
