19
Iteration:  2580charge 0 multiplicity 1
 C         0.140060        -0.416094         0.042106
 C         1.059131         0.451418        -0.690862
 C         0.496263         1.193123        -1.968954
 C         1.444659         1.976825        -2.878945
 O         1.914957         3.185306        -2.191364
 C         2.805769         2.078279        -2.608868
 C         3.493849         1.015655        -1.643066
 C         2.525950         0.416246        -0.562239
 O         1.811739         1.379185         0.228131
 H         0.197569        -1.397206        -0.204496
 H         0.308027        -0.126915         1.118014
 H        -0.817065        -0.065566        -0.275869
 H        -0.270025         0.487911        -2.519584
 H        -0.128359         1.945897        -1.578816
 H         0.937334         2.291891        -3.805105
 H         3.410130         2.203962        -3.506274
 H         3.866880         0.241747        -2.324899
 H         4.402766         1.327183        -1.181482
 H         2.910973        -0.374850         0.034323
