19
Iteration:   252
 C         0.120560        -0.424698        -0.026751
 C         1.097310         0.499091        -0.705562
 C         0.395413         1.422061        -1.647458
 C         1.209689         2.233758        -2.661905
 O         2.221008         3.184698        -1.951167
 C         2.696915         2.053672        -2.689114
 C         3.291259         0.827746        -2.021865
 C         2.657876         0.360138        -0.703091
 O         1.971260         1.194859         0.120732
 H         0.541633        -0.718682         0.985605
 H        -0.804431         0.080752         0.160070
 H        -0.176647        -1.357390        -0.619468
 H        -0.380541         0.837060        -2.175492
 H        -0.101110         2.098336        -0.997208
 H         0.715629         2.611367        -3.477867
 H         3.022461         2.404940        -3.590078
 H         3.035593        -0.015802        -2.720365
 H         4.375127         0.910842        -2.047718
 H         3.118576        -0.436170        -0.142794
