19
Iteration:  3956
 C         0.172212        -0.411318         0.042753
 C         1.014449         0.583888        -0.725498
 C         0.398404         1.029356        -2.034235
 C         1.262525         2.056947        -2.714799
 O         2.102335         3.056588        -1.976959
 C         2.830816         1.979560        -2.623690
 C         3.544537         1.028199        -1.606327
 C         2.449578         0.480484        -0.659320
 O         1.798475         1.564738         0.052111
 H         0.105850        -1.280590        -0.537878
 H         0.814492        -0.613969         0.952474
 H        -0.893757        -0.210573         0.205868
 H         0.453904         0.138771        -2.846322
 H        -0.561360         1.400361        -2.000995
 H         0.955740         2.327505        -3.707392
 H         3.563166         2.158439        -3.435172
 H         3.947654         0.248432        -2.243052
 H         4.335275         1.538071        -1.053567
 H         2.826795        -0.451886        -0.064869
