19
Iteration:  3187
 C         0.079429        -0.688447        -0.369322
 C         1.057523         0.480094        -0.593065
 C         0.543206         1.673005        -1.456011
 C         1.375906         1.906406        -2.776907
 O         2.093764         3.093051        -2.924612
 C         2.848647         1.842045        -2.761407
 C         3.428011         1.529045        -1.379991
 C         2.521886         0.492045        -0.536592
 O         1.716292         1.012890         0.568633
 H         0.006911        -1.299756        -1.281489
 H         0.317804        -1.242101         0.582576
 H        -0.859676        -0.289511        -0.200775
 H        -0.501696         1.497282        -1.800866
 H         0.461257         2.690942        -0.858682
 H         0.870367         1.591954        -3.698154
 H         3.389923         1.532464        -3.631929
 H         4.417450         1.119527        -1.423250
 H         3.608822         2.344369        -0.683386
 H         3.107423        -0.313760        -0.227732
