19
Iteration:  3427charge 0 multiplicity 1
 C         0.273780        -0.680044        -0.469758
 C         1.118063         0.652967        -0.586759
 C         0.426969         1.619758        -1.578796
 C         1.311586         2.027951        -2.792282
 O         2.091614         3.083699        -2.830026
 C         2.784296         1.770393        -2.719105
 C         3.372619         1.289486        -1.348371
 C         2.473631         0.499303        -0.459721
 O         1.751695         1.149720         0.619094
 H         0.053727        -1.053274        -1.518127
 H         0.918686        -1.428649         0.173053
 H        -0.697854        -0.459417        -0.055663
 H        -0.404701         1.189223        -1.982779
 H         0.281277         2.654983        -1.030193
 H         0.877106         1.631717        -3.809807
 H         3.414028         1.492756        -3.572390
 H         4.142017         0.528465        -1.736796
 H         3.968245         2.112926        -0.872004
 H         2.854318        -0.412857        -0.150237
