19
Iteration:  2248
 C         0.060288        -0.418481        -0.090473
 C         1.047710         0.579263        -0.691078
 C         0.342018         1.272125        -1.883090
 C         1.386203         1.885028        -2.807632
 O         2.026977         3.069083        -2.247515
 C         2.826435         1.917149        -2.635293
 C         3.580186         1.212025        -1.492796
 C         2.573349         0.420115        -0.678656
 O         1.810548         1.385298         0.260452
 H        -0.300082        -1.025849        -1.013494
 H         0.418649        -1.195071         0.593907
 H        -0.786956         0.009549         0.514481
 H        -0.215951         0.453802        -2.441924
 H        -0.267305         2.026872        -1.520235
 H         0.961507         2.070212        -3.888920
 H         3.451352         2.033757        -3.548662
 H         4.377572         0.593883        -1.963177
 H         4.100907         1.850205        -0.780219
 H         3.100648        -0.344000        -0.196714
