19
Iteration:  4367charge 0 multiplicity 1
 C         0.135272        -0.423132         0.097739
 C         1.012220         0.523725        -0.763398
 C         0.383616         1.121271        -2.097156
 C         1.387016         2.033789        -2.735198
 O         2.029101         3.088654        -2.061551
 C         2.846786         2.006259        -2.649914
 C         3.506382         1.064089        -1.588885
 C         2.536350         0.493345        -0.599352
 O         1.791073         1.420386         0.110975
 H        -0.465261        -1.142904        -0.556199
 H         0.786531        -1.077955         0.843213
 H        -0.522196         0.202162         0.649880
 H         0.047566         0.180677        -2.716288
 H        -0.442597         1.692265        -1.884249
 H         0.943734         2.369390        -3.715110
 H         3.508440         2.397704        -3.398061
 H         3.954795         0.321123        -2.184078
 H         4.278537         1.571671        -1.089167
 H         3.128073        -0.337894        -0.093147
