19
Iteration:   690charge 0 multiplicity 1
 C         0.062688        -0.462233        -0.078860
 C         1.114472         0.452635        -0.637998
 C         0.374693         1.522213        -1.539620
 C         1.165520         2.242664        -2.650687
 O         2.216328         3.324180        -2.315262
 C         2.652610         2.037698        -2.740263
 C         3.372738         1.003702        -1.842823
 C         2.552478         0.229423        -0.811374
 O         2.067306         0.969133         0.334821
 H        -0.377227         0.309185         0.625866
 H        -0.637074        -0.839985        -0.825961
 H         0.373693        -1.410873         0.615064
 H        -0.421189         1.049863        -1.937274
 H         0.134408         2.343748        -0.834465
 H         0.768758         2.566146        -3.596875
 H         3.160896         2.014964        -3.742684
 H         3.919480         0.334276        -2.557839
 H         4.079512         1.566802        -1.243950
 H         2.966009        -0.797306        -0.582600
