19
Iteration:  3649
 C         0.184314        -0.439126        -0.090572
 C         1.100981         0.508867        -0.785571
 C         0.364241         1.153057        -1.922849
 C         1.339081         2.014676        -2.718263
 O         2.115358         3.141175        -2.186805
 C         2.750313         1.897871        -2.634633
 C         3.492313         1.065253        -1.562780
 C         2.530322         0.512080        -0.534946
 O         1.764617         1.438570         0.170584
 H         0.104759        -1.382958        -0.691365
 H         0.536045        -0.698372         0.877514
 H        -0.810496         0.063926        -0.033927
 H        -0.136712         0.477646        -2.586370
 H        -0.501749         1.925441        -1.439845
 H         1.111501         2.359471        -3.731739
 H         3.267107         2.058273        -3.590088
 H         4.001720         0.206974        -2.048711
 H         4.305318         1.653663        -1.022109
 H         2.939955        -0.339116         0.134128
