19
Iteration:  1913
 C         0.150195        -0.546314        -0.156129
 C         1.065640         0.626975        -0.643915
 C         0.359721         1.362038        -1.810732
 C         1.374364         1.928986        -2.875227
 O         2.019816         3.091024        -2.443329
 C         2.852951         1.889686        -2.682504
 C         3.423229         1.216425        -1.532093
 C         2.545746         0.547993        -0.525554
 O         1.833597         1.253331         0.415773
 H         0.114601        -1.363926        -0.952711
 H         0.550690        -1.026015         0.750699
 H        -0.850198        -0.033106        -0.023130
 H        -0.315113         0.671214        -2.371547
 H        -0.233910         2.245998        -1.431915
 H         1.091794         1.796356        -3.855228
 H         3.536473         1.998210        -3.471708
 H         4.220212         0.510954        -1.859654
 H         4.024435         1.941235        -0.916290
 H         2.977575        -0.410601        -0.100682
