19
Iteration:  1659charge 0 multiplicity 1
 C         0.210156        -0.568385        -0.166376
 C         1.115105         0.577311        -0.624072
 C         0.434756         1.291076        -1.820821
 C         1.236708         2.129918        -2.784534
 O         2.174788         3.157177        -2.353422
 C         2.739934         1.943028        -2.730080
 C         3.403875         1.016027        -1.649320
 C         2.560390         0.554022        -0.505868
 O         1.748891         1.356208         0.404104
 H        -0.016904        -0.456880         0.983202
 H        -0.751502        -0.770823        -0.647206
 H         0.866361        -1.600193        -0.350650
 H         0.145587         0.361215        -2.460104
 H        -0.547042         1.721430        -1.592324
 H         0.877678         2.212776        -3.780801
 H         3.178001         1.963138        -3.668971
 H         3.728201         0.081773        -2.117302
 H         4.296933         1.440121        -1.183729
 H         3.069011        -0.318743        -0.001766
