19
Iteration:  4598
 C         0.220142        -0.748260        -0.398308
 C         0.965887         0.560907        -0.523961
 C         0.495244         1.636174        -1.455654
 C         1.385291         1.923399        -2.795369
 O         2.200603         3.157714        -2.869450
 C         2.816420         1.828456        -2.761250
 C         3.400976         1.387714        -1.414368
 C         2.450084         0.509184        -0.541900
 O         1.690747         1.111624         0.560860
 H         0.114222        -1.409599        -1.293990
 H         0.670804        -1.355025         0.404414
 H        -0.705357        -0.718264         0.006559
 H        -0.648699         1.467943        -1.619093
 H         0.401219         2.580735        -0.960633
 H         0.773601         1.797769        -3.756073
 H         3.286730         1.571888        -3.698061
 H         4.278930         0.839457        -1.730004
 H         3.747169         2.251570        -0.882947
 H         3.046216        -0.360753        -0.237361
