19
Iteration:  4467charge 0 multiplicity 1
 C         0.208709        -0.779338        -0.369540
 C         0.978714         0.618554        -0.587221
 C         0.385383         1.604836        -1.667981
 C         1.291773         1.901545        -2.827559
 O         2.151508         3.072508        -2.528982
 C         2.797760         1.842795        -2.698186
 C         3.486431         1.237800        -1.436990
 C         2.546519         0.534098        -0.529435
 O         1.774190         1.325866         0.436366
 H         0.460483        -1.653244        -1.073263
 H         0.243220        -1.088411         0.742987
 H        -0.852926        -0.487641        -0.554594
 H        -0.592124         1.135642        -2.069161
 H         0.237998         2.382504        -1.057683
 H         0.798772         2.005293        -3.842861
 H         3.294811         1.753063        -3.686749
 H         4.194459         0.530084        -1.743679
 H         4.066721         2.047132        -1.111313
 H         3.029984        -0.371052        -0.104856
