19
Iteration:   178
 C         0.124282        -0.547204        -0.076542
 C         1.073336         0.522261        -0.691585
 C         0.408056         1.555004        -1.595768
 C         1.264415         2.241728        -2.607108
 O         2.241842         3.326219        -2.202496
 C         2.665746         1.929265        -2.812966
 C         3.318297         0.907438        -1.881503
 C         2.559800         0.324875        -0.721392
 O         1.970377         1.087508         0.308505
 H         0.807706        -1.148556         0.691407
 H        -0.699321        -0.146591         0.470926
 H        -0.209819        -1.217608        -0.750295
 H        -0.379342         1.110264        -2.143925
 H        -0.074080         2.327019        -0.928483
 H         0.614795         2.532234        -3.522346
 H         2.897366         2.071948        -3.899066
 H         3.664400         0.050018        -2.438382
 H         4.242886         1.435235        -1.476549
 H         2.821453        -0.683505        -0.440521
