19
Iteration:   508charge 0 multiplicity 1
 C         0.018959        -0.409943         0.044193
 C         1.014122         0.506361        -0.611085
 C         0.406093         1.440291        -1.595208
 C         1.236591         2.286592        -2.579315
 O         2.221534         3.199152        -2.033735
 C         2.669031         2.009648        -2.766731
 C         3.369552         0.965626        -1.960600
 C         2.568754         0.205274        -0.925968
 O         2.118837         1.104412         0.146722
 H        -1.021902         0.182259         0.019080
 H        -0.151844        -1.393478        -0.549073
 H         0.251319        -0.634324         1.062076
 H        -0.164397         0.795227        -2.293555
 H        -0.245782         2.128992        -1.008438
 H         0.616534         2.626512        -3.440527
 H         3.037930         2.237543        -3.815803
 H         3.852400         0.345332        -2.681367
 H         4.044274         1.588729        -1.325804
 H         2.992284        -0.637514        -0.421086
