19
Iteration:  2736
 C         0.065546        -0.473016        -0.132199
 C         1.086440         0.569741        -0.671599
 C         0.481297         1.350390        -1.683309
 C         1.359367         1.962131        -2.829373
 O         2.073962         3.129578        -2.459932
 C         2.779934         1.835558        -2.723014
 C         3.516228         1.371371        -1.482248
 C         2.555357         0.459392        -0.629444
 O         1.755021         1.144311         0.381111
 H         0.160696        -1.328625        -0.798863
 H         0.331950        -0.939105         0.810353
 H        -0.969939        -0.091445        -0.061693
 H        -0.327547         0.644033        -2.242672
 H        -0.213804         2.060867        -1.264941
 H         1.046718         1.824658        -3.905749
 H         3.347317         1.718719        -3.744584
 H         4.433333         0.992347        -1.923938
 H         3.755654         2.354390        -0.971533
 H         3.078176        -0.380134        -0.208112
