19
Iteration:  3174
 C         0.078846        -0.659840        -0.411151
 C         1.000473         0.574357        -0.579621
 C         0.463297         1.638035        -1.521514
 C         1.277577         1.814356        -2.768821
 O         2.137758         3.072810        -2.932253
 C         2.785967         1.886388        -2.645856
 C         3.514310         1.493679        -1.268149
 C         2.591523         0.539829        -0.545040
 O         1.803437         1.030301         0.524033
 H        -0.082670        -1.201794        -1.386658
 H         0.489454        -1.420192         0.225047
 H        -0.959126        -0.336994        -0.050493
 H        -0.501581         1.274187        -1.830266
 H         0.321564         2.633860        -0.876503
 H         0.696070         1.626745        -3.692874
 H         3.484906         1.636663        -3.431550
 H         4.305425         0.839090        -1.698572
 H         3.774076         2.403167        -0.845677
 H         2.908260        -0.405309        -0.393428
