19
Iteration:   360
 C         0.111504        -0.558079        -0.065605
 C         1.067358         0.530280        -0.647549
 C         0.369161         1.490935        -1.575818
 C         1.246990         2.215798        -2.637251
 O         2.193237         3.208770        -2.136368
 C         2.723148         2.019544        -2.720851
 C         3.354248         0.845809        -1.949660
 C         2.495974         0.379451        -0.758118
 O         2.053863         1.249653         0.253978
 H         0.644247        -1.430395         0.315791
 H        -0.508578        -0.115505         0.676104
 H        -0.472561        -1.083467        -0.961666
 H        -0.306026         0.795112        -2.245519
 H        -0.272273         2.246549        -1.035192
 H         0.666891         2.595708        -3.418263
 H         3.280440         2.224111        -3.557253
 H         3.380707        -0.002163        -2.675996
 H         4.341913         1.079755        -1.628565
 H         2.920352        -0.573979        -0.472303
