19
Iteration:  3892
 C         0.161894        -0.567923        -0.043536
 C         1.032808         0.526796        -0.689890
 C         0.390844         1.201693        -1.916416
 C         1.415710         1.990168        -2.826581
 O         2.081779         3.151771        -2.226234
 C         2.828190         1.976657        -2.606942
 C         3.422350         1.078027        -1.623601
 C         2.488512         0.511978        -0.530876
 O         1.800488         1.487994         0.215594
 H        -0.193555        -1.121761        -0.838770
 H         0.675999        -1.323227         0.594904
 H        -0.687775        -0.134009         0.515305
 H        -0.106762         0.406204        -2.553048
 H        -0.434991         1.780510        -1.572105
 H         1.101328         2.046815        -3.839889
 H         3.493255         2.358700        -3.425271
 H         3.649536         0.138395        -2.150906
 H         4.426971         1.415164        -1.194245
 H         3.110351        -0.250770         0.102618
