19
Iteration:   242charge 0 multiplicity 1
 C         0.149167        -0.520953        -0.034127
 C         1.115185         0.506689        -0.719410
 C         0.362137         1.503784        -1.597324
 C         1.221989         2.291909        -2.578529
 O         2.231747         3.095573        -1.970563
 C         2.672950         2.042044        -2.747201
 C         3.337303         0.807141        -2.005058
 C         2.641508         0.354334        -0.782995
 O         1.905376         1.303620         0.126814
 H         0.500330        -0.771328         1.031888
 H        -0.782772        -0.088394         0.053483
 H         0.072358        -1.423620        -0.548534
 H        -0.366802         0.902965        -2.091510
 H        -0.156021         2.169093        -0.958009
 H         0.757414         2.727329        -3.432041
 H         3.183693         2.173197        -3.688317
 H         3.256374        -0.122287        -2.609459
 H         4.395939         0.947078        -1.719643
 H         2.989107        -0.567488        -0.345761
