19
Iteration:  1425
 C         0.140042        -0.451009        -0.117413
 C         1.139752         0.534066        -0.646500
 C         0.397891         1.312296        -1.798889
 C         1.226025         2.139578        -2.709413
 O         2.151216         3.153865        -2.181817
 C         2.691209         1.867909        -2.712592
 C         3.453603         1.034277        -1.752495
 C         2.638877         0.447727        -0.621612
 O         1.841565         1.296302         0.286578
 H         0.492607        -1.487842         0.106699
 H        -0.493859         0.161010         0.703529
 H        -0.677586        -0.673239        -0.795987
 H        -0.227791         0.704348        -2.490146
 H        -0.340987         1.913504        -1.273495
 H         0.840513         2.432958        -3.644788
 H         3.078846         1.835193        -3.694842
 H         3.712064         0.149837        -2.311099
 H         4.341528         1.548988        -1.394654
 H         3.185278        -0.254494         0.044274
