19
Iteration:  1207charge 0 multiplicity 1
 C         0.074458        -0.256799        -0.015168
 C         1.178210         0.617256        -0.659539
 C         0.440863         1.280138        -1.802040
 C         1.169228         2.266183        -2.655295
 O         2.062846         3.059638        -1.937855
 C         2.700531         2.027178        -2.648328
 C         3.374883         0.918501        -1.919314
 C         2.518261         0.228457        -0.829184
 O         2.112872         1.255307         0.209486
 H         0.182964        -1.277958        -0.434568
 H         0.170106        -0.415212         1.076897
 H        -0.816407         0.130487        -0.291811
 H        -0.064753         0.497395        -2.389573
 H        -0.439514         1.677441        -1.368868
 H         0.756881         2.641643        -3.555179
 H         3.255463         2.407355        -3.608115
 H         3.465934         0.043021        -2.669912
 H         4.416689         1.284310        -1.590377
 H         2.831598        -0.848189        -0.542595
