19
Iteration:  4317charge 0 multiplicity 1
 C         0.027518        -0.438956         0.007297
 C         1.077110         0.523938        -0.704955
 C         0.544459         1.068857        -2.053061
 C         1.373430         2.039120        -2.808600
 O         1.979612         3.098709        -2.010928
 C         2.784339         2.070349        -2.591643
 C         3.470507         0.966804        -1.728629
 C         2.514232         0.548392        -0.587422
 O         1.888985         1.494130         0.224668
 H         0.054710        -1.399655        -0.483823
 H         0.217168        -0.619469         1.020975
 H        -1.024477        -0.010875        -0.077049
 H         0.444641         0.177434        -2.549717
 H        -0.561243         1.409213        -1.863425
 H         1.107268         2.171652        -3.853063
 H         3.425821         2.443958        -3.416370
 H         3.529734         0.204844        -2.578982
 H         4.536446         1.234214        -1.361549
 H         2.910126        -0.278598        -0.029225
