19
Iteration:  1987charge 0 multiplicity 1
 C         0.303133        -0.602292        -0.056225
 C         1.059273         0.578585        -0.560797
 C         0.484843         1.258101        -1.872868
 C         1.398406         2.062868        -2.892312
 O         2.140402         3.158191        -2.330206
 C         2.798810         1.906022        -2.674270
 C         3.317763         1.074805        -1.649605
 C         2.457285         0.536575        -0.523394
 O         1.655289         1.417946         0.346762
 H         0.467648        -1.448603        -0.825942
 H         0.638473        -0.854699         0.858619
 H        -0.816736        -0.379610        -0.018008
 H         0.213156         0.413169        -2.423793
 H        -0.477823         1.857803        -1.735261
 H         0.936687         2.246699        -3.943702
 H         3.611300         2.050785        -3.549464
 H         3.509136         0.077555        -2.136453
 H         4.325374         1.346306        -1.300454
 H         3.057587        -0.142453         0.181630
