19
Iteration:   710
 C         0.022440        -0.531031        -0.169723
 C         1.081339         0.509622        -0.698109
 C         0.418164         1.582376        -1.407404
 C         1.205844         2.250961        -2.471758
 O         2.266870         3.189685        -2.269266
 C         2.606233         1.910430        -2.849001
 C         3.420706         1.036082        -1.881870
 C         2.600203         0.366374        -0.773727
 O         1.978936         1.054504         0.279498
 H        -0.721604        -0.066991         0.352697
 H        -0.259436        -1.122128        -0.973182
 H         0.513702        -1.331018         0.529265
 H        -0.458305         1.237318        -1.980540
 H         0.022258         2.234364        -0.626090
 H         0.620696         2.539566        -3.374306
 H         2.931030         2.048842        -3.983643
 H         3.740531         0.200057        -2.488827
 H         4.295881         1.585517        -1.533456
 H         3.171240        -0.585194        -0.450793
