19
Iteration:   645charge 0 multiplicity 1
 C         0.159625        -0.349648         0.094891
 C         1.030888         0.568574        -0.697774
 C         0.281146         1.517174        -1.692984
 C         1.203404         2.141044        -2.701316
 O         2.176752         3.200278        -2.092678
 C         2.735010         2.024769        -2.643094
 C         3.421210         1.035758        -1.831753
 C         2.440086         0.268947        -1.033240
 O         2.096093         0.987238         0.268855
 H        -0.327155         0.103646         0.992293
 H        -0.596214        -0.757422        -0.579517
 H         0.860393        -1.382439         0.435875
 H        -0.407847         0.922334        -2.157351
 H        -0.001743         2.356570        -1.037793
 H         0.793830         2.411206        -3.696216
 H         3.322410         2.120608        -3.653740
 H         3.956290         0.255404        -2.436692
 H         4.114026         1.485423        -1.121750
 H         2.708487        -0.850195        -0.885234
