19
Iteration:  1903
 C         0.115477        -0.531738        -0.129797
 C         1.038786         0.592287        -0.628136
 C         0.439995         1.360027        -1.862060
 C         1.349771         1.862578        -2.854951
 O         2.040446         3.146136        -2.528343
 C         2.815947         1.966385        -2.641702
 C         3.502597         1.228813        -1.490164
 C         2.528486         0.546083        -0.568925
 O         1.836058         1.250363         0.482788
 H        -0.045639        -1.137717        -1.078904
 H         0.504581        -1.273782         0.671324
 H        -0.948326        -0.330873         0.227842
 H        -0.202458         0.464768        -2.224129
 H        -0.298342         2.164837        -1.584149
 H         0.986106         1.954731        -3.817820
 H         3.368034         2.012534        -3.505133
 H         3.884799         0.310303        -2.006883
 H         4.327573         1.782606        -0.985362
 H         2.944752        -0.428626        -0.244035
