19
Iteration:  2320charge 0 multiplicity 1
 C         0.224495        -0.556896        -0.130280
 C         1.025030         0.592246        -0.648532
 C         0.431924         1.115089        -1.940656
 C         1.352566         2.070363        -2.672214
 O         2.177456         3.022288        -2.102689
 C         2.846251         1.931805        -2.691029
 C         3.396014         1.008332        -1.662320
 C         2.499915         0.651177        -0.573786
 O         1.676325         1.576357         0.149361
 H         0.369368        -1.414177        -0.698323
 H         0.555465        -0.811911         0.970417
 H        -0.816366        -0.439280         0.041112
 H         0.102166         0.324583        -2.550699
 H        -0.453951         1.799421        -1.522681
 H         0.927607         2.312044        -3.590453
 H         3.354395         1.948870        -3.656133
 H         3.487331         0.004032        -2.141516
 H         4.445378         1.214007        -1.275433
 H         3.087470        -0.097539         0.117474
