19
Iteration:  4357
 C         0.132179        -0.352664         0.001365
 C         1.089371         0.514651        -0.799409
 C         0.457880         1.099943        -2.045190
 C         1.330838         2.050382        -2.830222
 O         1.975305         3.037489        -1.976031
 C         2.789201         1.951710        -2.562578
 C         3.500138         1.049486        -1.647551
 C         2.580215         0.479623        -0.551951
 O         1.817680         1.478906         0.117784
 H        -0.426093        -1.090612        -0.662975
 H         0.709415        -0.836770         0.895819
 H        -0.555017         0.302564         0.455942
 H         0.119165         0.264679        -2.842205
 H        -0.492786         1.505025        -1.796579
 H         0.935496         2.624152        -3.715977
 H         3.394140         2.167234        -3.423223
 H         3.962114         0.223710        -2.096344
 H         4.265165         1.674820        -1.248919
 H         2.877479        -0.462936         0.009796
