19
Iteration:   496charge 0 multiplicity 1
 C         0.030054        -0.352180         0.026548
 C         1.126549         0.529999        -0.630697
 C         0.376492         1.437963        -1.675110
 C         1.216004         2.290999        -2.593124
 O         2.186921         3.185071        -2.102668
 C         2.646303         2.039282        -2.821004
 C         3.330729         1.016445        -1.891921
 C         2.495175         0.245762        -0.841111
 O         2.189552         0.966052         0.246501
 H        -0.995088         0.231328         0.276767
 H        -0.201598        -1.249685        -0.652610
 H         0.391719        -0.733995         0.937557
 H        -0.399228         0.809480        -2.252068
 H        -0.351711         2.123891        -1.175319
 H         0.645251         2.783140        -3.409068
 H         3.265580         2.302586        -3.711007
 H         3.927922         0.255072        -2.394443
 H         4.201902         1.465736        -1.355209
 H         2.889388        -0.764430        -0.830896
