19
Iteration:  3309charge 0 multiplicity 1
 C         0.251951        -0.688323        -0.464420
 C         1.053349         0.585243        -0.609532
 C         0.498513         1.751698        -1.469986
 C         1.316974         1.843888        -2.774492
 O         2.153719         2.999529        -2.938300
 C         2.803520         1.799921        -2.633900
 C         3.396385         1.494121        -1.359377
 C         2.487115         0.501189        -0.524569
 O         1.669646         1.064861         0.560441
 H        -0.358220        -0.689409        -1.413471
 H         0.892849        -1.643688        -0.186000
 H        -0.523071        -0.573269         0.267896
 H        -0.691365         1.641963        -1.552581
 H         0.848898         2.691862        -0.916764
 H         0.677724         1.546991        -3.598215
 H         3.429850         1.536881        -3.524840
 H         4.393675         1.108385        -1.518014
 H         3.475889         2.425972        -0.731369
 H         3.018791        -0.392749        -0.144125
