19
Iteration:  4640charge 0 multiplicity 1
 C         0.195316        -0.646497        -0.454997
 C         1.078635         0.604996        -0.651212
 C         0.410444         1.641438        -1.629602
 C         1.184266         1.905300        -2.827527
 O         2.217855         3.056455        -2.682709
 C         2.669368         1.710191        -2.687599
 C         3.438477         1.425946        -1.284454
 C         2.578422         0.537211        -0.506149
 O         1.806361         1.131664         0.493764
 H        -0.509464        -0.648775        -1.361523
 H         0.988612        -1.496624        -0.328384
 H        -0.294998        -0.597746         0.529791
 H        -0.632677         1.301071        -1.852438
 H         0.151862         2.644610        -1.035611
 H         0.877012         1.678793        -3.926613
 H         3.274993         1.359281        -3.445922
 H         4.459968         0.848033        -1.402297
 H         3.734090         2.395290        -0.807695
 H         2.940732        -0.494342        -0.239541
