19
Iteration:  4609
 C         0.270909        -0.730906        -0.381542
 C         1.034000         0.606151        -0.608542
 C         0.495985         1.678423        -1.496578
 C         1.293740         1.957847        -2.727422
 O         2.203004         3.114922        -2.801932
 C         2.770437         1.756290        -2.787762
 C         3.421363         1.382400        -1.413054
 C         2.489700         0.504863        -0.547918
 O         1.644645         1.118261         0.554030
 H        -0.002966        -1.131220        -1.406449
 H         1.007079        -1.412635         0.054648
 H        -0.554216        -0.488337         0.127813
 H        -0.470323         1.263017        -1.992849
 H         0.439816         2.541727        -0.868039
 H         0.758903         1.671647        -3.709791
 H         3.274343         1.444049        -3.699949
 H         4.326633         0.803402        -1.336837
 H         3.586639         2.321621        -0.924416
 H         2.791058        -0.458770        -0.116595
