19
Iteration:  3337
 C         0.134245        -0.655268        -0.379548
 C         1.006270         0.628199        -0.630408
 C         0.432485         1.657548        -1.553584
 C         1.362418         1.976865        -2.745729
 O         2.186107         3.039910        -3.005987
 C         2.789146         1.747138        -2.674099
 C         3.407665         1.587549        -1.280554
 C         2.498143         0.568032        -0.549501
 O         1.836413         0.892407         0.636899
 H        -0.251938        -1.081685        -1.301306
 H         0.660559        -1.418627         0.155596
 H        -0.771825        -0.313623         0.215123
 H        -0.334001         1.096054        -1.911937
 H         0.015242         2.589049        -1.116689
 H         0.673267         1.712977        -3.571772
 H         3.367069         1.398436        -3.511404
 H         4.393035         1.032536        -1.336669
 H         3.425152         2.543806        -0.774519
 H         2.941504        -0.458808        -0.575441
