19
Iteration:   123
 C         0.116023        -0.412141        -0.103902
 C         1.068881         0.613737        -0.658726
 C         0.399728         1.674317        -1.589357
 C         1.223539         2.200616        -2.686106
 O         2.126109         3.168948        -2.258905
 C         2.661842         1.909577        -2.697466
 C         3.357422         1.091447        -1.735749
 C         2.522855         0.230754        -0.852484
 O         2.119527         0.928301         0.300397
 H         0.787088        -1.334989         0.224995
 H        -0.363756        -0.015875         0.788880
 H        -0.557808        -0.801739        -0.760529
 H        -0.384390         1.110287        -2.013026
 H        -0.167167         2.434819        -0.985825
 H         0.710486         2.210828        -3.697551
 H         3.135530         1.939034        -3.692353
 H         3.967573         0.429029        -2.284362
 H         3.964069         1.715486        -1.038675
 H         2.822338        -0.800647        -0.706279
