19
Iteration:  3833
 C         0.043832        -0.644079        -0.114637
 C         1.025548         0.488775        -0.657344
 C         0.481565         1.417217        -1.706407
 C         1.321260         2.013378        -2.830556
 O         2.167698         3.167147        -2.530743
 C         2.806061         1.880543        -2.779975
 C         3.502662         1.277602        -1.495444
 C         2.537310         0.513309        -0.547265
 O         1.749064         1.231410         0.421569
 H         0.087789        -1.536826        -0.795485
 H         0.450421        -0.925644         0.827764
 H        -0.988121        -0.354784         0.004677
 H        -0.259978         0.693902        -2.284858
 H        -0.071437         2.203960        -1.181521
 H         0.949383         1.960290        -3.882690
 H         3.332401         2.012931        -3.704273
 H         4.273471         0.593278        -1.863294
 H         3.967699         2.164068        -1.122486
 H         3.008178        -0.399312        -0.060819
