19
Iteration:  1515charge 0 multiplicity 1
 C         0.210352        -0.444579         0.052734
 C         1.041708         0.484794        -0.797272
 C         0.391932         1.282740        -1.884260
 C         1.285455         2.022410        -2.762925
 O         2.149267         3.124172        -2.002487
 C         2.737574         1.990252        -2.617064
 C         3.447753         1.005087        -1.710646
 C         2.532095         0.369606        -0.680888
 O         1.801541         1.407202         0.048602
 H        -0.463203        -1.118640        -0.422162
 H         0.947334        -0.912407         0.741043
 H        -0.201179         0.238274         0.923129
 H        -0.331848         0.624299        -2.443993
 H        -0.277164         1.968336        -1.452837
 H         0.899534         2.438472        -3.639368
 H         3.287336         2.308339        -3.449448
 H         3.972281         0.305106        -2.329829
 H         4.211643         1.652341        -1.271072
 H         3.015069        -0.383125         0.018356
