19
Iteration:   748charge 0 multiplicity 1
 C         0.392787        -0.605558        -0.268232
 C         1.032671         0.671541        -0.603123
 C         0.288164         1.694163        -1.491828
 C         1.182814         2.333865        -2.576371
 O         2.311305         3.095865        -2.174330
 C         2.645646         1.927338        -2.796909
 C         3.208015         0.859846        -1.898325
 C         2.462827         0.333926        -0.713588
 O         2.037463         1.136315         0.289246
 H        -0.810400        -0.835722        -0.093138
 H         0.485142        -1.300150        -1.243096
 H         0.974988        -0.892074         0.549602
 H        -0.616467         1.227294        -1.823985
 H        -0.093144         2.563502        -0.884676
 H         0.579120         2.713146        -3.393098
 H         3.053856         1.974146        -3.723145
 H         3.467523        -0.080640        -2.467645
 H         4.222853         1.131461        -1.530960
 H         2.650312        -0.646140        -0.427111
