19
Iteration:  3962charge 0 multiplicity 1
 C         0.181045        -0.395341         0.018174
 C         1.030457         0.615737        -0.717750
 C         0.383874         1.057431        -1.994135
 C         1.360386         2.061137        -2.710917
 O         2.035346         3.044955        -2.001509
 C         2.837901         1.972021        -2.582840
 C         3.533309         1.007240        -1.598965
 C         2.501312         0.456358        -0.695289
 O         1.761017         1.546499         0.036767
 H         0.373355        -1.442414        -0.511821
 H         0.637349        -0.605598         0.996783
 H        -0.831116        -0.058932         0.280693
 H         0.322390         0.289159        -2.679818
 H        -0.741965         1.438886        -1.881232
 H         1.022213         2.197063        -3.790635
 H         3.468360         2.187019        -3.459619
 H         4.066679         0.293899        -2.297836
 H         4.325267         1.545006        -1.034974
 H         2.707099        -0.442656        -0.188614
