19
Iteration:  3827
 C         0.057110        -0.661790        -0.145503
 C         1.011673         0.462426        -0.600381
 C         0.479655         1.414803        -1.690174
 C         1.355566         2.031659        -2.826417
 O         2.132913         3.213043        -2.579843
 C         2.827997         1.901403        -2.814763
 C         3.471132         1.244640        -1.531016
 C         2.578859         0.468660        -0.525129
 O         1.735136         1.245395         0.439639
 H         0.160260        -1.444031        -0.870584
 H         0.334832        -1.027649         0.914193
 H        -0.991696        -0.274975        -0.007640
 H        -0.244114         0.874349        -2.207932
 H        -0.132018         2.218756        -1.221188
 H         0.857222         1.979606        -3.782252
 H         3.578406         1.801968        -3.685193
 H         4.322844         0.605805        -1.839185
 H         3.929148         2.142846        -0.949326
 H         2.948466        -0.403140         0.099580
