19
Iteration:  3442
 C         0.326512        -0.646656        -0.472032
 C         1.041031         0.617490        -0.604580
 C         0.508916         1.621070        -1.592888
 C         1.243248         1.889774        -2.856065
 O         2.204594         3.100903        -2.659539
 C         2.688375         1.729330        -2.717075
 C         3.361613         1.275169        -1.426256
 C         2.505720         0.499386        -0.414874
 O         1.739545         1.243815         0.534546
 H         0.094221        -1.016966        -1.536801
 H         0.877482        -1.440225         0.036426
 H        -0.702316        -0.650408         0.059646
 H        -0.613318         1.319643        -1.838357
 H         0.230032         2.484833        -1.126873
 H         0.701186         1.976158        -3.757293
 H         3.249710         1.570481        -3.639616
 H         4.304740         0.813360        -1.547979
 H         3.637138         2.220274        -0.919753
 H         3.046636        -0.473247        -0.111545
