19
Iteration:  3487charge 0 multiplicity 1
 C         0.212413        -0.611128        -0.248961
 C         1.043032         0.538640        -0.666493
 C         0.397267         1.492881        -1.674223
 C         1.330651         1.978525        -2.782117
 O         2.159351         3.180200        -2.631343
 C         2.783217         1.890967        -2.684137
 C         3.470946         1.229040        -1.466880
 C         2.551510         0.492958        -0.529557
 O         1.708164         1.210492         0.437902
 H         0.120580        -1.402182        -1.054127
 H         0.750295        -1.124270         0.523739
 H        -0.782783        -0.327967         0.274554
 H        -0.525628         0.902255        -2.121802
 H        -0.121582         2.217650        -1.148825
 H         0.961749         1.881263        -3.785732
 H         3.249016         1.677819        -3.660612
 H         4.195064         0.525534        -1.849690
 H         3.998452         1.906605        -0.788628
 H         2.842717        -0.496190        -0.058741
