19
Iteration:   167
 C         0.045074        -0.530215        -0.094134
 C         1.081406         0.452097        -0.688611
 C         0.454050         1.573638        -1.507366
 C         1.266348         2.177046        -2.623700
 O         2.166492         3.260475        -2.251482
 C         2.690209         2.009266        -2.764213
 C         3.357010         0.995719        -1.883606
 C         2.582516         0.297512        -0.734102
 O         1.984248         1.094751         0.278204
 H         0.422465        -1.345586         0.654031
 H        -0.603396         0.132710         0.436404
 H        -0.536508        -0.982963        -0.798259
 H        -0.411710         1.162729        -1.964053
 H         0.082058         2.376745        -0.806806
 H         0.659308         2.474365        -3.546236
 H         3.289844         2.032560        -3.693967
 H         3.478619         0.174642        -2.576319
 H         4.409547         1.306676        -1.599252
 H         3.124763        -0.569661        -0.370188
