19
Iteration:  4374charge 0 multiplicity 1
 C         0.163348        -0.448002         0.126624
 C         0.993770         0.511795        -0.723008
 C         0.380935         1.105060        -2.028483
 C         1.384251         2.032274        -2.772622
 O         2.077273         3.119943        -2.106477
 C         2.898295         2.047166        -2.641423
 C         3.489244         1.108708        -1.615197
 C         2.511005         0.462412        -0.676393
 O         1.740260         1.391490         0.127729
 H        -0.468873        -1.125653        -0.413584
 H         0.766138        -1.118906         0.704983
 H        -0.612742         0.046076         0.803825
 H         0.185033         0.344132        -2.717531
 H        -0.499176         1.844051        -1.842574
 H         1.066762         2.152242        -3.788106
 H         3.478101         2.455809        -3.510564
 H         4.013306         0.238259        -2.187871
 H         4.313485         1.508869        -0.923897
 H         2.860133        -0.207438         0.111827
