19
Iteration:  3240
 C         0.224481        -0.669348        -0.479416
 C         0.987678         0.615196        -0.609934
 C         0.371883         1.734805        -1.491807
 C         1.342253         1.891334        -2.679817
 O         2.194278         3.048565        -2.987254
 C         2.729511         1.729657        -2.656750
 C         3.449003         1.524838        -1.297302
 C         2.503641         0.518833        -0.554211
 O         1.813968         1.006542         0.587616
 H         0.297704        -1.288605        -1.423344
 H         0.636033        -1.235547         0.416089
 H        -0.895364        -0.488060        -0.347425
 H        -0.575217         1.481195        -1.921787
 H         0.358200         2.731591        -0.904337
 H         0.845637         1.478393        -3.574639
 H         3.276834         1.285769        -3.460572
 H         4.517413         1.169641        -1.293367
 H         3.285723         2.419851        -0.740383
 H         2.858900        -0.440072        -0.520866
