19
Iteration:  1789charge 0 multiplicity 1
 C         0.197453        -0.524437        -0.006675
 C         1.103811         0.535034        -0.670765
 C         0.531936         1.096807        -1.973948
 C         1.368838         2.092866        -2.822073
 O         2.015906         3.175365        -2.253194
 C         2.817172         1.996103        -2.659214
 C         3.387882         0.984762        -1.634530
 C         2.575958         0.558770        -0.455789
 O         1.684079         1.455809         0.254741
 H         0.169610        -1.403244        -0.697641
 H         0.569534        -0.779324         1.018660
 H        -0.794840         0.018567         0.095658
 H         0.240925         0.302558        -2.627805
 H        -0.410210         1.677503        -1.595375
 H         0.944926         2.244951        -3.820192
 H         3.424006         2.221735        -3.611745
 H         3.325999         0.031683        -2.256068
 H         4.483124         1.077450        -1.470077
 H         3.082165        -0.207696         0.232816
