19
Iteration:  4105charge 0 multiplicity 1
 C         0.145158        -0.721420        -0.296840
 C         0.979753         0.554908        -0.534738
 C         0.437424         1.544192        -1.687581
 C         1.379825         1.890729        -2.818586
 O         2.066222         3.175422        -2.762577
 C         2.802163         1.962656        -2.692230
 C         3.468453         1.287729        -1.465509
 C         2.523969         0.466776        -0.451775
 O         1.786669         1.203544         0.535263
 H        -0.013326        -1.259695        -1.295384
 H         0.672268        -1.472922         0.340914
 H        -0.720489        -0.435045         0.199910
 H        -0.450054         1.219156        -2.170360
 H         0.211995         2.560308        -1.136535
 H         1.001475         1.806849        -3.874344
 H         3.438808         1.926785        -3.544059
 H         4.018861         0.376618        -1.872299
 H         4.253483         1.847470        -0.914631
 H         3.130086        -0.309338        -0.117873
