19
Iteration:  4972
 C         0.131748        -0.607200        -0.050142
 C         1.050584         0.367300        -0.712386
 C         0.468253         1.266657        -1.801056
 C         1.390183         2.104780        -2.815515
 O         2.159904         3.162028        -2.289848
 C         2.825561         1.945813        -2.740459
 C         3.443868         1.121615        -1.580889
 C         2.516446         0.523287        -0.530007
 O         1.671790         1.444470         0.239530
 H        -0.083788        -1.433713        -0.760504
 H         0.429662        -1.062808         0.889969
 H        -0.882407        -0.339001         0.238240
 H        -0.160181         0.574361        -2.349663
 H        -0.199494         1.981849        -1.125489
 H         0.900810         2.310294        -3.839507
 H         3.556863         2.067099        -3.586130
 H         3.930665         0.261372        -2.196276
 H         4.379744         1.626720        -1.248860
 H         2.936480        -0.199955         0.158609
