19
Iteration:  3640
 C         0.174974        -0.479096        -0.031742
 C         1.083515         0.475954        -0.762355
 C         0.433557         1.176666        -1.959428
 C         1.304098         2.075019        -2.795630
 O         2.124630         3.146818        -2.155369
 C         2.798762         1.963652        -2.628198
 C         3.490427         1.012089        -1.627992
 C         2.556288         0.478048        -0.484571
 O         1.713469         1.485210         0.179837
 H         0.033822        -1.403751        -0.642117
 H         0.547910        -0.794190         0.989673
 H        -0.890780        -0.060297         0.127744
 H         0.113678         0.383943        -2.641060
 H        -0.590331         1.766156        -1.514295
 H         0.902606         2.333699        -3.774110
 H         3.298955         1.946742        -3.607200
 H         3.899617         0.140468        -2.158654
 H         4.353092         1.597523        -1.229651
 H         2.859629        -0.291953         0.151498
