19
Iteration:  4568charge 0 multiplicity 1
 C         0.183379        -0.640956        -0.375223
 C         1.056664         0.575990        -0.659362
 C         0.525242         1.684354        -1.568845
 C         1.322368         1.901197        -2.857476
 O         2.030057         3.154501        -2.819642
 C         2.759970         1.820163        -2.657309
 C         3.451417         1.369908        -1.322461
 C         2.548062         0.453450        -0.502932
 O         1.780032         1.036763         0.557493
 H         0.366472        -1.571003        -0.959289
 H         0.233402        -0.702667         0.705803
 H        -0.991131        -0.377370        -0.542921
 H        -0.557948         1.308567        -1.781117
 H         0.467853         2.637694        -1.126222
 H         0.903343         1.682931        -3.860629
 H         3.381253         1.538538        -3.596020
 H         4.340899         0.917169        -1.700236
 H         3.797783         2.224150        -0.732961
 H         2.965570        -0.545804        -0.281641
