19
Iteration:  1217charge 0 multiplicity 1
 C         0.075867        -0.224776        -0.041974
 C         1.156735         0.611285        -0.641249
 C         0.385122         1.302203        -1.830990
 C         1.209350         2.218787        -2.664840
 O         2.101697         3.075482        -1.904679
 C         2.605876         1.999322        -2.705662
 C         3.308345         0.925715        -1.909028
 C         2.669373         0.230463        -0.786402
 O         2.099471         1.218611         0.220100
 H        -0.098455        -1.167707        -0.641952
 H         0.195367        -0.467498         1.054799
 H        -0.809670         0.218360        -0.104185
 H         0.209249         0.411898        -2.537593
 H        -0.466189         1.847223        -1.504027
 H         0.713948         2.742608        -3.395936
 H         3.180933         2.271817        -3.654574
 H         3.635672         0.244146        -2.751946
 H         4.296382         1.368789        -1.552172
 H         3.043089        -0.784865        -0.370578
