19
Iteration:  2579
 C         0.138874        -0.406644         0.035710
 C         1.066532         0.453439        -0.698091
 C         0.487593         1.198990        -1.964886
 C         1.438528         1.962553        -2.880359
 O         1.917639         3.189728        -2.183657
 C         2.803456         2.075602        -2.610342
 C         3.499686         1.019838        -1.642872
 C         2.528648         0.418779        -0.557743
 O         1.813857         1.374148         0.225979
 H         0.235525        -1.427274        -0.189669
 H         0.274237        -0.149278         1.078337
 H        -0.834687        -0.053609        -0.256483
 H        -0.275445         0.505151        -2.503792
 H        -0.147181         1.970032        -1.581931
 H         0.938798         2.246194        -3.853878
 H         3.402995         2.190023        -3.491639
 H         3.867292         0.221632        -2.329643
 H         4.373500         1.357988        -1.156651
 H         2.935178        -0.401716         0.045405
