19
Iteration:  1491charge 0 multiplicity 1
 C         0.332257        -0.514339         0.109487
 C         0.980878         0.526191        -0.772211
 C         0.309459         1.307098        -1.914632
 C         1.309502         2.178793        -2.736829
 O         2.076925         3.135896        -2.050205
 C         2.874585         1.981760        -2.624582
 C         3.463517         0.869623        -1.695340
 C         2.472646         0.430621        -0.710319
 O         1.790752         1.397375         0.062794
 H         0.325885        -1.530928        -0.325979
 H         0.947924        -0.321492         1.143459
 H        -0.650250        -0.155528         0.520401
 H        -0.275847         0.575214        -2.479439
 H        -0.504394         1.985775        -1.612365
 H         0.966327         2.632019        -3.620781
 H         3.360350         2.277113        -3.464801
 H         3.685277         0.016014        -2.352776
 H         4.407230         1.125732        -1.187058
 H         2.973229        -0.340452        -0.080730
