19
Iteration:   267charge 0 multiplicity 1
 C         0.107510        -0.371889         0.025830
 C         1.127049         0.449913        -0.704510
 C         0.405087         1.367965        -1.785766
 C         1.280314         2.245446        -2.595144
 O         2.114826         3.211316        -1.979392
 C         2.688673         2.077893        -2.685708
 C         3.265720         0.834646        -2.047167
 C         2.569367         0.263709        -0.810820
 O         2.071250         1.241975         0.289537
 H         0.512333        -0.914310         0.897884
 H        -0.713370         0.275101         0.346111
 H        -0.274760        -1.044273        -0.619536
 H        -0.216706         0.771920        -2.422435
 H        -0.262240         2.063364        -1.218918
 H         0.730304         2.730993        -3.520705
 H         3.397065         2.242231        -3.590074
 H         3.156152         0.066482        -2.809432
 H         4.357300         0.963541        -1.743894
 H         3.059997        -0.669882        -0.417691
