19
Iteration:  2197charge 0 multiplicity 1
 C         0.185506        -0.608886        -0.079477
 C         0.999030         0.594773        -0.641841
 C         0.426868         1.336792        -1.809948
 C         1.353172         2.046473        -2.827543
 O         2.144121         3.194017        -2.511429
 C         2.813576         1.969279        -2.665703
 C         3.481688         1.136175        -1.525690
 C         2.507662         0.489346        -0.514558
 O         1.723747         1.248086         0.361505
 H         0.077600        -1.526591        -0.704540
 H         0.588792        -0.894878         0.831096
 H        -0.857902        -0.258896         0.108980
 H        -0.113704         0.551578        -2.377801
 H        -0.368782         2.072336        -1.399135
 H         0.963024         2.091815        -3.822946
 H         3.430193         1.966781        -3.603856
 H         3.986031         0.303998        -2.031152
 H         4.324333         1.712187        -1.056319
 H         2.909287        -0.502720        -0.157286
