19
Iteration:  3602
 C         0.252642        -0.503092         0.052314
 C         0.965338         0.589380        -0.718542
 C         0.499356         1.015421        -2.087767
 C         1.394046         1.996802        -2.750903
 O         2.160308         3.133709        -2.015779
 C         2.874418         2.070177        -2.611526
 C         3.371016         0.928416        -1.771188
 C         2.437523         0.601849        -0.556963
 O         1.666874         1.555960         0.217744
 H        -0.047454        -1.376437        -0.508901
 H         0.957903        -0.816131         0.809380
 H        -0.508789        -0.026991         0.549755
 H         0.484678         0.138587        -2.799761
 H        -0.695441         1.399635        -2.070742
 H         0.863702         2.318660        -3.748971
 H         3.503835         2.394835        -3.476534
 H         3.316123         0.159420        -2.594113
 H         4.426566         0.952362        -1.418947
 H         2.963799        -0.400269        -0.013878
