19
Iteration:  1179charge 0 multiplicity 1
 C         0.197476        -0.483542         0.193815
 C         1.047127         0.531617        -0.702806
 C         0.307084         1.461812        -1.830398
 C         1.341447         2.187564        -2.658933
 O         2.122353         3.197254        -1.965215
 C         2.786171         2.056362        -2.630474
 C         3.336962         0.920381        -1.938990
 C         2.514681         0.240182        -0.814445
 O         1.984204         1.231906         0.087302
 H         0.597035        -1.467010         0.015102
 H         0.247729        -0.255197         1.248851
 H        -0.993805        -0.414284        -0.105175
 H        -0.407180         0.838338        -2.458743
 H        -0.451091         2.227360        -1.381780
 H         1.001294         2.520469        -3.722430
 H         3.294215         2.277049        -3.533344
 H         3.432093         0.123043        -2.640844
 H         4.355094         1.134827        -1.702660
 H         2.893502        -0.672790        -0.466657
