19
Iteration:   916
 C         0.184578        -0.516065        -0.016110
 C         1.028748         0.567805        -0.625194
 C         0.361807         1.431022        -1.671802
 C         1.198875         2.419907        -2.450807
 O         2.339017         3.041637        -1.989405
 C         2.585638         1.947874        -2.828960
 C         3.336742         0.930666        -1.999733
 C         2.498503         0.322380        -0.870138
 O         2.011433         1.240660         0.184473
 H        -0.634382        -0.133893         0.563767
 H        -0.152032        -1.125413        -0.838856
 H         0.741355        -1.199744         0.834474
 H         0.032736         0.718724        -2.398522
 H        -0.570791         1.862487        -1.303304
 H         0.636076         3.045857        -3.241367
 H         3.075818         2.147464        -3.750877
 H         3.689033         0.165370        -2.728061
 H         4.295466         1.453136        -1.648359
 H         2.988683        -0.545643        -0.435622
