19
Iteration:  1411
 C         0.164037        -0.509340        -0.057110
 C         1.056559         0.521502        -0.719343
 C         0.368446         1.394086        -1.707462
 C         1.302409         2.103334        -2.722367
 O         2.144513         3.125051        -2.234446
 C         2.761989         1.935136        -2.752836
 C         3.407509         1.050267        -1.686344
 C         2.515825         0.416037        -0.657427
 O         1.887977         1.284696         0.230067
 H         0.757476        -1.225908         0.589444
 H        -0.408455         0.010635         0.773378
 H        -0.468284        -0.957875        -0.785503
 H        -0.190700         0.675238        -2.229383
 H        -0.289340         2.186938        -1.224103
 H         0.697500         2.350792        -3.633080
 H         3.430958         2.230262        -3.523158
 H         4.017483         0.241106        -2.164590
 H         4.173695         1.671499        -1.156975
 H         2.878179        -0.522755        -0.331714
