19
Iteration:  1361
 C         0.163917        -0.504645        -0.039281
 C         1.033421         0.495764        -0.714614
 C         0.381733         1.483450        -1.710852
 C         1.275946         2.150034        -2.712544
 O         2.145957         3.213940        -2.380587
 C         2.739144         1.985803        -2.717985
 C         3.433091         1.037525        -1.655663
 C         2.468468         0.311143        -0.697927
 O         1.944506         1.188582         0.344342
 H         0.351005        -0.196759         1.035958
 H        -0.926495        -0.542606        -0.444498
 H         0.572713        -1.559932        -0.122741
 H        -0.401250         0.862090        -2.322885
 H        -0.027838         2.258762        -1.087358
 H         0.762230         2.231811        -3.636258
 H         3.214790         1.959789        -3.797805
 H         4.000861         0.311826        -2.256439
 H         4.114258         1.514103        -0.923414
 H         2.983845        -0.637058        -0.268165
