19
Iteration:  2087charge 0 multiplicity 1
 C         0.144031        -0.410463         0.043876
 C         1.041265         0.534948        -0.711377
 C         0.522147         1.091173        -1.997610
 C         1.404686         2.006577        -2.849687
 O         2.013838         3.243991        -2.268518
 C         2.837012         2.012444        -2.604899
 C         3.442806         1.089863        -1.585520
 C         2.461303         0.415344        -0.578040
 O         1.774906         1.355992         0.269941
 H        -0.271108        -1.204512        -0.600076
 H         0.754475        -0.764883         0.751425
 H        -0.615737         0.016039         0.722761
 H         0.271985         0.235218        -2.613434
 H        -0.452533         1.632850        -1.808681
 H         0.873495         2.241959        -3.814495
 H         3.530350         2.305600        -3.486635
 H         3.833172         0.192298        -2.087194
 H         4.270687         1.496487        -0.985619
 H         2.978272        -0.471565        -0.089752
