19
Iteration:   740charge 0 multiplicity 1
 C         0.316019        -0.643865        -0.263293
 C         1.039906         0.661806        -0.640760
 C         0.294885         1.716588        -1.470402
 C         1.152105         2.285543        -2.572390
 O         2.356133         3.088691        -2.170256
 C         2.574209         1.935550        -2.852223
 C         3.270797         0.886739        -1.886745
 C         2.476337         0.296516        -0.756740
 O         2.027568         1.178765         0.348017
 H        -0.768008        -0.582785        -0.003323
 H         0.481228        -1.280293        -1.167765
 H         0.867147        -1.119074         0.518247
 H        -0.692743         1.150514        -1.915916
 H         0.131196         2.458641        -0.701481
 H         0.719876         2.760274        -3.485384
 H         3.097468         2.070486        -3.843410
 H         3.620917         0.044011        -2.481259
 H         4.177508         1.406442        -1.441437
 H         2.781234        -0.704802        -0.390880
