19
Iteration:  4952charge 0 multiplicity 1
 C         0.083264        -0.539663        -0.033295
 C         1.054316         0.520733        -0.635095
 C         0.435503         1.122209        -1.947734
 C         1.389468         1.997880        -2.657283
 O         2.174957         3.134048        -2.168397
 C         2.809059         2.040577        -2.705521
 C         3.504779         1.077564        -1.706290
 C         2.528657         0.577142        -0.582055
 O         1.701808         1.406415         0.206059
 H        -0.156187        -1.421352        -0.605560
 H         0.350014        -0.839149         1.035786
 H        -0.973748        -0.049610         0.086351
 H         0.217323         0.295758        -2.610042
 H        -0.631158         1.739106        -1.801223
 H         0.927630         2.300376        -3.732275
 H         3.266532         2.318529        -3.717610
 H         3.946409         0.132613        -2.241909
 H         4.389410         1.642042        -1.240096
 H         3.014044        -0.167960         0.049175
