19
Iteration:  1708
 C         0.208507        -0.461913         0.035991
 C         1.038532         0.511669        -0.766403
 C         0.378221         1.243268        -1.897283
 C         1.345622         1.978407        -2.842133
 O         2.026419         3.089664        -2.181217
 C         2.808125         1.964448        -2.590900
 C         3.539716         1.115902        -1.588641
 C         2.550077         0.438661        -0.599186
 O         1.763786         1.397159         0.139579
 H         0.797020        -0.909502         0.882087
 H        -0.629285         0.198613         0.495571
 H        -0.264148        -1.252139        -0.493331
 H        -0.182464         0.502311        -2.419169
 H        -0.368961         1.983598        -1.618731
 H         0.806252         2.434880        -3.794538
 H         3.601559         2.343648        -3.443608
 H         4.012594         0.325878        -2.201791
 H         4.324437         1.694793        -1.065961
 H         2.867568        -0.448775        -0.082221
