19
Iteration:  4451
 C         0.172594        -0.608278        -0.378174
 C         1.068939         0.579464        -0.643065
 C         0.390763         1.451438        -1.627227
 C         1.343669         1.912556        -2.766303
 O         2.113905         3.034868        -2.406793
 C         2.838668         1.785247        -2.729956
 C         3.450895         1.241429        -1.566996
 C         2.510912         0.586144        -0.516080
 O         1.753619         1.363847         0.409002
 H         0.392985        -1.187238        -1.267037
 H         0.452077        -1.240102         0.470515
 H        -0.941407        -0.638129        -0.356231
 H        -0.390669         0.891430        -2.036861
 H        -0.062757         2.577478        -1.299527
 H         0.899925         1.908471        -3.730163
 H         3.343252         1.871877        -3.726581
 H         4.332669         0.528789        -1.853974
 H         3.954561         2.008926        -0.851769
 H         2.857196        -0.327108        -0.033365
