19
Iteration:  4741
 C         0.089992        -0.665815        -0.315422
 C         1.055568         0.628575        -0.604893
 C         0.359025         1.529843        -1.630009
 C         1.303469         1.950975        -2.797844
 O         2.215869         3.108519        -2.651683
 C         2.772298         1.758694        -2.740379
 C         3.431077         1.390010        -1.392869
 C         2.512705         0.545822        -0.612839
 O         1.876938         1.152150         0.546496
 H         0.467308        -1.158456        -1.312014
 H         0.259200        -1.300496         0.591809
 H        -0.964259        -0.441656        -0.414319
 H        -0.506761         0.904561        -2.107110
 H        -0.266962         2.268339        -1.144799
 H         0.946159         2.006601        -3.949335
 H         3.313385         1.358162        -3.647905
 H         4.400234         0.831219        -1.504847
 H         3.648731         2.267001        -0.758146
 H         2.971272        -0.414941        -0.324952
