19
Iteration:  4551charge 0 multiplicity 1
 C         0.170334        -0.463586        -0.361967
 C         1.136286         0.608441        -0.676769
 C         0.472305         1.571966        -1.586028
 C         1.310400         1.864282        -2.749667
 O         2.064651         3.060293        -2.719890
 C         2.795020         1.824388        -2.686057
 C         3.414855         1.416723        -1.361306
 C         2.569548         0.407548        -0.594151
 O         1.755166         1.056095         0.480143
 H         0.540977        -1.367033        -0.841964
 H        -0.074230        -0.836634         0.660122
 H        -0.769618        -0.359972        -0.778290
 H        -0.515407         1.417741        -1.848090
 H         0.302670         2.475702        -0.843579
 H         0.786026         1.560184        -3.645612
 H         3.299242         1.762297        -3.598667
 H         4.494651         1.023344        -1.381804
 H         3.386224         2.378393        -0.784383
 H         3.044616        -0.535627        -0.306556
