19
Iteration:  1633charge 0 multiplicity 1
 C         0.308407        -0.623046        -0.141181
 C         1.052169         0.556385        -0.690946
 C         0.380280         1.392942        -1.769792
 C         1.261817         2.070152        -2.754081
 O         2.178174         3.085925        -2.228279
 C         2.723282         1.772652        -2.773876
 C         3.468108         1.088653        -1.605049
 C         2.507906         0.581328        -0.552342
 O         1.749807         1.400944         0.249707
 H        -0.289018        -0.304303         0.638902
 H        -0.475322        -1.074751        -0.884128
 H         0.930180        -1.467149         0.095723
 H        -0.354857         0.813859        -2.299734
 H        -0.266840         2.275979        -1.312085
 H         0.813981         2.286759        -3.694600
 H         3.240318         1.953821        -3.743186
 H         4.154528         0.247064        -1.905710
 H         4.115076         1.868218        -1.116914
 H         2.897525        -0.306340        -0.059718
