19
Iteration:  3103
 C         0.176885        -0.803230        -0.281317
 C         1.033129         0.499980        -0.682929
 C         0.426707         1.631921        -1.503432
 C         1.352849         2.011546        -2.700532
 O         2.193435         3.153296        -2.868121
 C         2.806859         1.815122        -2.726315
 C         3.469691         1.355609        -1.395305
 C         2.548031         0.604896        -0.498008
 O         1.656121         1.143700         0.468157
 H        -0.240344        -1.384249        -1.114107
 H         0.874687        -1.552109         0.274475
 H        -0.668444        -0.423651         0.363818
 H        -0.444218         1.141738        -1.984380
 H         0.146087         2.466734        -1.011098
 H         0.848405         1.823041        -3.627592
 H         3.226192         1.503300        -3.700310
 H         4.217541         0.643794        -1.680831
 H         3.838522         2.272541        -0.809625
 H         2.875238        -0.482168        -0.254141
