19
Iteration:   410
 C         0.236479        -0.608903        -0.180602
 C         1.021337         0.535573        -0.690520
 C         0.311290         1.614605        -1.512444
 C         1.203519         2.356551        -2.526290
 O         2.316208         3.084828        -2.203766
 C         2.602513         1.879901        -2.850053
 C         3.378266         0.971079        -1.891852
 C         2.541127         0.372776        -0.734870
 O         1.956829         1.171669         0.307113
 H         0.461876        -0.706319         0.976639
 H        -0.918363        -0.416535        -0.270161
 H         0.593816        -1.532051        -0.507311
 H        -0.453976         1.153529        -2.054729
 H        -0.081110         2.353471        -0.809902
 H         0.611248         2.756338        -3.465311
 H         2.937399         1.942366        -3.995111
 H         3.612346         0.053157        -2.434397
 H         4.314925         1.537893        -1.499743
 H         3.065289        -0.558384        -0.337749
