19
Iteration:  4727charge 0 multiplicity 1
 C         0.160582        -0.569317        -0.359231
 C         1.034234         0.592895        -0.560031
 C         0.416076         1.518851        -1.616095
 C         1.334203         1.946359        -2.735440
 O         2.191594         3.081090        -2.686971
 C         2.811434         1.782283        -2.699087
 C         3.389681         1.441555        -1.392769
 C         2.508898         0.417012        -0.638732
 O         1.794633         1.142315         0.476385
 H        -0.019068        -1.371311        -1.127153
 H         0.625718        -1.158335         0.506864
 H        -0.823796        -0.200371        -0.117749
 H        -0.322509         0.983779        -2.048995
 H         0.057793         2.479943        -1.153533
 H         0.796078         1.723902        -3.670576
 H         3.315999         1.665739        -3.597179
 H         4.465341         1.067838        -1.539681
 H         3.382393         2.407343        -0.837177
 H         2.921464        -0.585774        -0.420053
