19
Iteration:    94
 C         0.190278        -0.636198         0.002342
 C         0.997601         0.515498        -0.634109
 C         0.350027         1.607478        -1.533144
 C         1.276388         2.337146        -2.543018
 O         2.386522         3.286253        -2.401453
 C         2.635717         1.962631        -2.897173
 C         3.356088         1.097201        -1.812356
 C         2.445095         0.237006        -0.812625
 O         1.938428         0.976399         0.345118
 H         0.960398        -1.127114         0.666867
 H        -0.614252        -0.198289         0.680385
 H        -0.459966        -1.320131        -0.639795
 H        -0.377509         1.081232        -2.226583
 H        -0.312484         2.287095        -0.916336
 H         0.648746         2.552384        -3.451334
 H         3.043970         1.738449        -3.909125
 H         4.182344         0.438160        -2.172756
 H         3.870497         1.809951        -1.127331
 H         2.894068        -0.766203        -0.632527
