19
Iteration:  3484
 C         0.206270        -0.617429        -0.263244
 C         1.024459         0.534659        -0.691414
 C         0.410569         1.499036        -1.655177
 C         1.306097         1.986658        -2.745255
 O         2.162808         3.158594        -2.629310
 C         2.785382         1.863994        -2.697126
 C         3.501271         1.237640        -1.451783
 C         2.533634         0.519204        -0.543487
 O         1.707956         1.211756         0.430700
 H         0.151158        -1.414446        -1.099258
 H         0.791997        -1.181260         0.509667
 H        -0.744736        -0.312414         0.261158
 H        -0.415726         0.918202        -2.108777
 H        -0.074464         2.298078        -1.080225
 H         0.900539         1.760540        -3.738049
 H         3.263065         1.733978        -3.669288
 H         4.201660         0.463515        -1.783427
 H         4.044595         2.032092        -0.842086
 H         2.772655        -0.356433        -0.095696
