19
Iteration:   407charge 0 multiplicity 1
 C         0.238985        -0.601470        -0.190117
 C         1.051823         0.566489        -0.700839
 C         0.300508         1.604181        -1.523972
 C         1.198667         2.378167        -2.549589
 O         2.328211         3.069742        -2.205739
 C         2.590243         1.889583        -2.831939
 C         3.359712         0.945593        -1.887569
 C         2.528167         0.389215        -0.726056
 O         1.967825         1.161297         0.336539
 H         0.519385        -0.746456         0.996668
 H        -0.859445        -0.426377        -0.212679
 H         0.622780        -1.597010        -0.559825
 H        -0.510655         1.101026        -2.172556
 H        -0.153077         2.366801        -0.871659
 H         0.581190         2.711025        -3.409184
 H         2.899735         1.946304        -3.883032
 H         3.691779         0.042930        -2.444990
 H         4.260077         1.527574        -1.586486
 H         3.041517        -0.536152        -0.410368
