19
Iteration:  1058
 C         0.129470        -0.589592         0.021018
 C         0.983480         0.548083        -0.668594
 C         0.453320         1.627276        -1.524520
 C         1.333701         2.185740        -2.599622
 O         2.153788         3.311036        -2.355481
 C         2.715415         1.973016        -2.763363
 C         3.379531         1.028353        -1.785014
 C         2.485073         0.281917        -0.882514
 O         1.974026         1.015142         0.268361
 H         0.241614        -0.530977         1.040113
 H        -0.810948        -0.721882        -0.392228
 H         0.678380        -1.615783        -0.177955
 H        -0.665072         1.373344        -1.967273
 H         0.312545         2.413739        -0.662609
 H         0.664439         2.345039        -3.497616
 H         2.982015         1.912681        -3.731589
 H         3.891151         0.305963        -2.405103
 H         4.174890         1.470865        -1.192092
 H         2.769670        -0.679748        -0.580897
