19
Iteration:  4234
 C         0.207234        -0.645287        -0.305373
 C         1.055831         0.623467        -0.618442
 C         0.466304         1.349998        -1.742870
 C         1.333019         1.917818        -2.768660
 O         2.110353         3.060600        -2.317234
 C         2.813244         1.834921        -2.725797
 C         3.484045         1.120347        -1.595629
 C         2.535152         0.586700        -0.546243
 O         1.657022         1.464027         0.377003
 H        -0.092490        -1.074608        -1.286770
 H         0.713377        -1.302514         0.420411
 H        -0.802252        -0.297473         0.058854
 H        -0.300917         0.580511        -2.204141
 H        -0.107258         2.142659        -1.415821
 H         0.885396         2.231506        -3.736220
 H         3.440157         1.991307        -3.629141
 H         4.210689         0.484692        -2.021718
 H         4.066033         1.778037        -0.989930
 H         3.004075        -0.231360         0.102060
