19
Iteration:  3599charge 0 multiplicity 1
 C         0.255286        -0.495468         0.028135
 C         0.974448         0.614351        -0.737375
 C         0.467859         1.016564        -2.077375
 C         1.353909         1.986989        -2.745761
 O         2.168508         3.109026        -2.024044
 C         2.842753         2.067003        -2.579928
 C         3.399164         0.928531        -1.762382
 C         2.462666         0.582679        -0.568222
 O         1.662154         1.558201         0.201030
 H        -0.059649        -1.377458        -0.459384
 H         1.023777        -0.807239         0.842308
 H        -0.516822         0.038315         0.632308
 H         0.587425         0.131028        -2.820684
 H        -0.465205         1.398557        -2.076932
 H         0.952717         2.436997        -3.705025
 H         3.517541         2.482708        -3.372651
 H         3.317146         0.154986        -2.553760
 H         4.404315         0.938364        -1.426374
 H         2.904270        -0.316615         0.044118
