19
Iteration:   563
 C         0.373430        -0.627483         0.000466
 C         1.036265         0.678772        -0.608119
 C         0.405600         1.489163        -1.794678
 C         1.243715         2.420776        -2.613606
 O         2.289611         3.058434        -1.898069
 C         2.650428         1.991610        -2.748707
 C         3.213327         0.732268        -2.068505
 C         2.423432         0.350030        -0.790826
 O         1.952321         1.325741         0.245205
 H        -0.758162        -0.465602         0.114533
 H         0.495227        -1.582450        -0.613147
 H         0.783977        -0.795331         0.921259
 H        -0.408967         0.991617        -2.279992
 H        -0.341386         2.099112        -1.344718
 H         0.779052         2.973520        -3.449668
 H         3.246675         2.170500        -3.650289
 H         3.208408        -0.062303        -2.765898
 H         4.304585         0.838741        -1.959243
 H         2.712108        -0.580935        -0.412158
