19
Iteration:  4773
 C         0.276710        -0.596809        -0.285177
 C         1.119563         0.586696        -0.671234
 C         0.458991         1.551514        -1.628544
 C         1.329177         1.981652        -2.815501
 O         2.123852         3.187112        -2.609218
 C         2.799660         1.816151        -2.729751
 C         3.397588         1.171861        -1.476950
 C         2.514293         0.501481        -0.514179
 O         1.627568         1.212031         0.488881
 H         0.560938        -1.522801        -0.931467
 H         0.525568        -1.099229         0.638400
 H        -0.749907        -0.516036        -0.490064
 H        -0.378818         1.022651        -1.925646
 H         0.166048         2.354939        -0.949855
 H         0.772436         1.895679        -3.841595
 H         3.273613         1.578484        -3.673110
 H         4.070212         0.343268        -1.879170
 H         4.027902         1.914552        -0.939981
 H         2.988298        -0.353052        -0.015952
