19
Iteration:  2583charge 0 multiplicity 1
 C         0.143026        -0.431448         0.072579
 C         1.044347         0.456109        -0.676828
 C         0.521693         1.163408        -1.982299
 C         1.444593         2.022320        -2.869047
 O         1.912535         3.168155        -2.216296
 C         2.827593         2.082845        -2.602177
 C         3.466297         1.004565        -1.643827
 C         2.518144         0.415162        -0.582301
 O         1.803225         1.394283         0.232403
 H         0.102369        -1.489573        -0.272742
 H         0.384574        -0.119036         1.179354
 H        -0.838229        -0.093779        -0.316065
 H        -0.161144         0.484058        -2.538839
 H        -0.139136         1.933734        -1.533420
 H         0.945652         2.413142        -3.701052
 H         3.450790         2.287177        -3.531960
 H         3.847426         0.267415        -2.334467
 H         4.509345         1.277242        -1.230282
 H         2.890010        -0.364067         0.042335
