19
Iteration:  2205charge 0 multiplicity 1
 C         0.162965        -0.545261        -0.083946
 C         1.037072         0.499058        -0.674201
 C         0.420127         1.344937        -1.840536
 C         1.378732         2.004447        -2.842170
 O         2.078205         3.226694        -2.457311
 C         2.797277         1.903467        -2.677291
 C         3.512360         1.144934        -1.510217
 C         2.519960         0.503555        -0.519491
 O         1.759166         1.258557         0.401810
 H         0.067992        -1.320701        -0.953133
 H         0.401223        -0.971773         0.876989
 H        -0.866993        -0.060414         0.118955
 H        -0.245268         0.659494        -2.493813
 H        -0.205992         2.112704        -1.417434
 H         0.969320         2.051058        -3.922139
 H         3.392788         1.935590        -3.631442
 H         3.992410         0.301186        -2.046080
 H         4.299120         1.806077        -1.147631
 H         2.891585        -0.385886        -0.105890
