19
Iteration:  3669charge 0 multiplicity 1
 C         0.130637        -0.490956        -0.112791
 C         1.056220         0.587623        -0.719831
 C         0.372019         1.361654        -1.786007
 C         1.317117         1.953677        -2.822315
 O         2.056328         3.009272        -2.251168
 C         2.849982         1.915619        -2.641642
 C         3.544198         1.208495        -1.514554
 C         2.531444         0.424576        -0.641769
 O         1.784819         1.377999         0.222187
 H         0.160782        -1.372479        -0.786186
 H         0.447453        -0.834092         0.814062
 H        -0.874116        -0.170418        -0.013062
 H        -0.111626         0.599402        -2.385327
 H        -0.240594         2.061405        -1.431629
 H         1.006047         2.195876        -3.877762
 H         3.408000         1.928443        -3.582024
 H         4.347105         0.531552        -1.855295
 H         4.003831         2.029474        -0.912526
 H         2.809602        -0.544300        -0.027826
