19
Iteration:  3714charge 0 multiplicity 1
 C         0.227378        -0.597420        -0.182062
 C         1.058473         0.537179        -0.680225
 C         0.451633         1.445296        -1.707874
 C         1.262490         1.983211        -2.775539
 O         2.169805         3.248603        -2.690686
 C         2.816286         1.957651        -2.674115
 C         3.472228         1.195619        -1.453785
 C         2.526883         0.471090        -0.513047
 O         1.658383         1.181251         0.457800
 H        -0.196154        -1.277011        -0.916998
 H         0.668717        -1.162030         0.573689
 H        -0.584505        -0.094082         0.327523
 H        -0.137937         0.740836        -2.335003
 H        -0.109797         2.137634        -1.294139
 H         0.821946         1.741824        -3.757326
 H         3.371515         1.832176        -3.610742
 H         3.924833         0.316208        -1.959210
 H         4.283947         1.685664        -0.838185
 H         2.955776        -0.552853        -0.016476
