19
Iteration:  1935
 C         0.191464        -0.550276        -0.097025
 C         1.125392         0.572654        -0.757142
 C         0.458531         1.372426        -1.784609
 C         1.254526         1.956537        -2.828608
 O         2.139963         3.051862        -2.356269
 C         2.749348         1.833218        -2.704448
 C         3.492932         1.247646        -1.472127
 C         2.539507         0.444440        -0.580375
 O         1.687221         1.377774         0.253953
 H         0.498654        -1.494655        -0.646202
 H         0.573171        -0.848425         0.887503
 H        -0.891672        -0.247613        -0.230133
 H        -0.392641         0.781412        -2.187782
 H         0.106006         2.284052        -1.221624
 H         0.765927         2.202919        -3.688977
 H         3.309257         1.846359        -3.587174
 H         4.417199         0.669327        -1.656422
 H         3.831038         2.026856        -0.751071
 H         2.841064        -0.466370         0.014721
