19
Iteration:  1350charge 0 multiplicity 1
 C         0.094366        -0.502140        -0.112785
 C         1.106501         0.533972        -0.617257
 C         0.421483         1.409333        -1.680434
 C         1.255962         2.135985        -2.699494
 O         2.168214         3.268495        -2.344631
 C         2.685698         1.878515        -2.747946
 C         3.415359         1.043782        -1.720659
 C         2.571412         0.353771        -0.681474
 O         1.930049         1.202131         0.351387
 H        -0.352298        -0.304910         0.922189
 H        -0.865566        -0.521288        -0.758431
 H         0.552284        -1.520041        -0.091252
 H        -0.483305         0.901657        -2.210306
 H        -0.137266         2.182925        -1.153646
 H         0.790708         2.356849        -3.625133
 H         3.231024         1.970740        -3.768927
 H         3.968752         0.238043        -2.231564
 H         4.188167         1.697073        -1.240615
 H         2.971689        -0.618679        -0.215233
