19
Iteration:  1892charge 0 multiplicity 1
 C         0.109797        -0.555420        -0.166224
 C         1.019424         0.592565        -0.558768
 C         0.467716         1.282722        -1.768493
 C         1.379406         1.896573        -2.893538
 O         2.040761         3.213731        -2.583656
 C         2.826773         2.040879        -2.674105
 C         3.517381         1.198575        -1.499785
 C         2.503482         0.456103        -0.522413
 O         1.782958         1.268386         0.483125
 H        -0.348900        -1.166989        -1.016045
 H         0.796629        -1.212682         0.520764
 H        -0.692005        -0.018179         0.472024
 H        -0.078165         0.553103        -2.544143
 H        -0.361060         2.006401        -1.510289
 H         0.944584         1.866874        -3.825772
 H         3.382154         1.904121        -3.515729
 H         3.971356         0.435729        -2.187215
 H         4.447870         1.627421        -1.050667
 H         2.904219        -0.496254        -0.118670
