19
Iteration:  4683charge 0 multiplicity 1
 C         0.118725        -0.722104        -0.175245
 C         1.003743         0.520728        -0.674937
 C         0.550861         1.613910        -1.610100
 C         1.393529         1.867081        -2.879007
 O         2.108030         3.163783        -2.840223
 C         2.822539         1.977058        -2.671335
 C         3.445959         1.404543        -1.384124
 C         2.501482         0.498402        -0.522402
 O         1.689105         1.039726         0.532940
 H        -0.608499        -0.816348        -1.066652
 H         0.757187        -1.686780        -0.057686
 H        -0.515470        -0.426483         0.672714
 H        -0.442440         1.450181        -1.927798
 H         0.720180         2.582588        -1.006471
 H         0.902433         1.807341        -3.887052
 H         3.305013         1.707921        -3.560289
 H         4.295085         0.684707        -1.724838
 H         3.924707         2.154714        -0.695779
 H         2.897245        -0.486501        -0.220207
