19
Iteration:  4537charge 0 multiplicity 1
 C         0.082693        -0.666998        -0.356469
 C         1.032374         0.535582        -0.627834
 C         0.426201         1.633409        -1.556497
 C         1.319248         1.863767        -2.802638
 O         2.132481         3.061195        -2.662906
 C         2.808454         1.812790        -2.725722
 C         3.400968         1.482745        -1.367345
 C         2.544829         0.479986        -0.610489
 O         1.878529         1.112927         0.482184
 H         0.363664        -1.652428        -0.693669
 H         0.023736        -0.591487         0.687228
 H        -0.920687        -0.256427        -0.821485
 H        -0.449275         1.160621        -1.955148
 H         0.263084         2.653669        -1.154939
 H         0.936636         1.813316        -3.796136
 H         3.407881         1.463622        -3.630220
 H         4.469261         1.172125        -1.538574
 H         3.428792         2.387290        -0.685170
 H         2.963631        -0.494017        -0.347686
