19
Iteration:  4149
 C         0.117197        -0.575687        -0.203162
 C         1.071734         0.564308        -0.715487
 C         0.330072         1.513227        -1.672249
 C         1.318745         1.929756        -2.842663
 O         2.159575         3.041380        -2.572690
 C         2.799008         1.776819        -2.700271
 C         3.470012         1.483943        -1.384212
 C         2.612119         0.537755        -0.597400
 O         1.790515         1.099672         0.423890
 H         0.057371        -1.441713        -0.927257
 H         0.322040        -1.104812         0.766374
 H        -0.807854        -0.173865        -0.108532
 H        -0.527239         1.034549        -2.080563
 H        -0.016725         2.478289        -1.167571
 H         0.868581         1.918964        -3.880612
 H         3.272896         1.486301        -3.605147
 H         4.496731         1.057855        -1.597759
 H         3.472448         2.265784        -0.582372
 H         3.074779        -0.398736        -0.443401
