19
Iteration:  3014
 C         0.149160        -0.579790        -0.095458
 C         1.050213         0.478667        -0.728083
 C         0.428711         1.285176        -1.849741
 C         1.307711         2.064634        -2.755686
 O         2.101368         3.199405        -2.474265
 C         2.818874         1.909749        -2.640342
 C         3.441029         1.149783        -1.474761
 C         2.560451         0.487562        -0.477779
 O         1.760649         1.355242         0.267882
 H         0.065669        -1.443187        -0.807189
 H         0.734260        -1.179637         0.713050
 H        -0.770196        -0.217522         0.264759
 H        -0.233535         0.738784        -2.527452
 H        -0.165273         1.966164        -1.410088
 H         0.839582         2.244603        -3.675050
 H         3.410081         1.872334        -3.486648
 H         4.011789         0.436984        -1.971833
 H         4.274054         1.769841        -0.960217
 H         3.000622        -0.455288         0.032580
