19
Iteration:  4027charge 0 multiplicity 1
 C         0.138288        -0.546866        -0.154305
 C         1.045778         0.609361        -0.601640
 C         0.442565         1.254844        -1.754905
 C         1.337047         1.986150        -2.734898
 O         2.138401         3.203099        -2.482107
 C         2.809627         1.959614        -2.713903
 C         3.483339         1.194501        -1.596549
 C         2.508894         0.444110        -0.546116
 O         1.735711         1.291268         0.400026
 H         0.110693        -1.263345        -1.062628
 H         0.569838        -1.064082         0.672482
 H        -0.895267        -0.297383         0.027391
 H         0.049048         0.357032        -2.296112
 H        -0.462203         1.880199        -1.401473
 H         1.002565         2.132759        -3.795456
 H         3.291995         1.918466        -3.717179
 H         4.093644         0.344393        -1.981142
 H         4.153745         1.903990        -1.058752
 H         2.949101        -0.484374        -0.229487
