19
Iteration:   952charge 0 multiplicity 1
 C         0.303239        -0.582806        -0.083850
 C         1.048056         0.553235        -0.653704
 C         0.352087         1.617528        -1.522032
 C         1.212820         2.299577        -2.598182
 O         2.276293         3.186990        -2.132060
 C         2.672453         1.983686        -2.760467
 C         3.280350         0.872543        -1.959038
 C         2.460682         0.245123        -0.789920
 O         1.936101         1.176010         0.211420
 H        -0.773833        -0.501942        -0.088789
 H         0.507817        -1.480058        -0.685310
 H         0.795823        -0.790560         0.919838
 H        -0.531526         1.418851        -1.945211
 H         0.227166         2.344326        -0.776523
 H         0.603846         2.746650        -3.407203
 H         3.278309         2.261333        -3.701285
 H         3.402945         0.035028        -2.686803
 H         4.305073         1.140294        -1.572751
 H         2.871530        -0.699801        -0.304621
