19
Iteration:   933
 C         0.272376        -0.625382        -0.017921
 C         1.023135         0.578893        -0.718780
 C         0.250193         1.565129        -1.611593
 C         1.245171         2.356555        -2.524548
 O         2.370488         3.134436        -2.017195
 C         2.594452         1.915643        -2.812217
 C         3.325735         0.871634        -1.965497
 C         2.481577         0.407645        -0.847405
 O         2.008999         1.193212         0.236927
 H        -0.800214        -0.330701         0.235045
 H         0.151974        -1.560942        -0.654323
 H         0.840070        -0.812009         0.791282
 H        -0.358838         0.875737        -2.333896
 H        -0.412539         2.302852        -1.055831
 H         0.719780         2.808337        -3.324263
 H         2.862063         2.057173        -3.929540
 H         3.674950        -0.007599        -2.518818
 H         4.198594         1.350889        -1.573153
 H         2.792030        -0.616422        -0.555085
