19
Iteration:   517charge 0 multiplicity 1
 C         0.029322        -0.450640         0.071596
 C         1.126103         0.486309        -0.676390
 C         0.417134         1.498003        -1.581779
 C         1.234513         2.241222        -2.520043
 O         2.237932         3.200133        -2.011140
 C         2.632777         2.017647        -2.728955
 C         3.420633         0.934871        -2.006056
 C         2.506950         0.175972        -0.938862
 O         2.016191         1.216726         0.117058
 H        -1.023070         0.035066        -0.053592
 H        -0.013239        -1.442776        -0.418017
 H         0.243095        -0.632320         1.056457
 H        -0.400060         0.863472        -2.161043
 H        -0.402274         2.078559        -1.111827
 H         0.758640         2.722220        -3.378333
 H         3.069388         2.137019        -3.704307
 H         3.967062         0.200762        -2.624396
 H         4.331534         1.352974        -1.553200
 H         3.043914        -0.676919        -0.563514
