19
Iteration:  1373
 C         0.239273        -0.534070         0.079010
 C         0.985729         0.538070        -0.767666
 C         0.362304         1.550148        -1.669246
 C         1.296679         2.106119        -2.789802
 O         2.127865         3.205296        -2.365018
 C         2.823528         1.972453        -2.652025
 C         3.401776         1.065689        -1.629457
 C         2.460741         0.333108        -0.729486
 O         1.908375         1.133945         0.247677
 H         0.462628        -0.444201         1.147881
 H        -0.849622        -0.424235         0.068465
 H         0.513234        -1.609853        -0.265600
 H        -0.463002         0.977756        -2.283639
 H        -0.294757         2.252707        -1.161365
 H         0.891439         2.299918        -3.789956
 H         3.502367         2.053412        -3.647498
 H         4.020169         0.315164        -2.195241
 H         4.142044         1.678371        -1.054641
 H         2.694842        -0.755776        -0.429496
