19
Iteration:  2716charge 0 multiplicity 1
 C         0.177987        -0.517104        -0.088687
 C         1.082784         0.517270        -0.696020
 C         0.376278         1.303937        -1.861701
 C         1.319728         2.028832        -2.895953
 O         2.097677         3.153839        -2.518909
 C         2.786811         1.990350        -2.708869
 C         3.430594         1.208231        -1.430971
 C         2.502475         0.455966        -0.521235
 O         1.867954         1.181581         0.460302
 H        -0.230129        -1.415751        -0.691325
 H         0.492615        -0.927743         0.810107
 H        -0.659510         0.155286         0.248843
 H        -0.322583         0.622794        -2.530129
 H        -0.411939         2.077815        -1.686294
 H         0.877900         2.148467        -3.832211
 H         3.542906         2.035845        -3.508066
 H         4.229049         0.590148        -1.802876
 H         3.909346         2.067112        -0.804603
 H         3.041887        -0.425340        -0.213427
