19
Iteration:  1381charge 0 multiplicity 1
 C         0.251660        -0.545472         0.133673
 C         0.984903         0.567785        -0.661919
 C         0.311101         1.550721        -1.739444
 C         1.334981         2.075555        -2.801470
 O         2.140957         3.230170        -2.320119
 C         2.795814         1.922633        -2.659066
 C         3.439534         1.087462        -1.629645
 C         2.470406         0.338798        -0.806393
 O         1.861795         1.129825         0.195052
 H         0.863237        -0.775492         1.090560
 H        -0.951497        -0.359075         0.106067
 H         0.320347        -1.538542        -0.306377
 H        -0.485462         0.943639        -2.231306
 H        -0.050801         2.459421        -1.270619
 H         0.948019         2.203187        -3.764048
 H         3.504527         2.178912        -3.404133
 H         3.939851         0.310701        -2.139588
 H         4.068624         1.705776        -1.005195
 H         2.775157        -0.709102        -0.497181
