19
Iteration:  4933charge 0 multiplicity 1
 C         0.138479        -0.392746        -0.001078
 C         1.084219         0.593865        -0.717321
 C         0.484564         1.040885        -2.036565
 C         1.315381         2.111762        -2.800792
 O         2.045269         3.068883        -2.012763
 C         2.827260         1.950547        -2.630728
 C         3.449396         1.036173        -1.670478
 C         2.495378         0.478680        -0.598479
 O         1.782311         1.460442         0.195113
 H         0.144125        -1.292246        -0.561063
 H         0.729468        -0.546380         0.918821
 H        -0.864494         0.082652         0.054785
 H         0.361057         0.225634        -2.778194
 H        -0.488056         1.320250        -1.885350
 H         0.808703         2.530693        -3.669989
 H         3.493309         2.190195        -3.466422
 H         3.807856         0.190602        -2.190893
 H         4.245580         1.525439        -1.114108
 H         3.017024        -0.370468        -0.139455
