19
Iteration:  4427charge 0 multiplicity 1
 C         0.206491        -0.618335        -0.222572
 C         1.122894         0.594895        -0.715495
 C         0.371967         1.358813        -1.819054
 C         1.272812         2.018594        -2.838563
 O         2.165486         3.122007        -2.396289
 C         2.751096         1.837820        -2.639785
 C         3.482075         1.166438        -1.514448
 C         2.592539         0.521424        -0.490009
 O         1.695533         1.345534         0.381692
 H        -0.236363        -1.185178        -1.016525
 H         0.678296        -1.263552         0.434135
 H        -0.698900        -0.248820         0.408296
 H        -0.234647         0.608423        -2.342563
 H        -0.350473         2.256804        -1.541703
 H         0.830835         2.171665        -3.824629
 H         3.486141         1.984967        -3.489369
 H         4.093147         0.320968        -1.964438
 H         4.242387         1.851746        -0.982986
 H         2.851439        -0.380660         0.046037
