19
Iteration:  4614charge 0 multiplicity 1
 C         0.305583        -0.702169        -0.401292
 C         1.073917         0.562883        -0.650019
 C         0.464855         1.709122        -1.554120
 C         1.266754         1.971713        -2.718465
 O         2.195409         3.069387        -2.772693
 C         2.755636         1.731650        -2.766046
 C         3.406243         1.364612        -1.402482
 C         2.515128         0.525235        -0.522445
 O         1.646945         1.123753         0.555935
 H        -0.054478        -0.927112        -1.387870
 H         1.016320        -1.420706         0.026999
 H        -0.632358        -0.473781         0.340423
 H        -0.454458         1.378858        -1.993738
 H         0.298328         2.605464        -0.882291
 H         0.808550         1.791696        -3.641411
 H         3.308889         1.365005        -3.680640
 H         4.443791         0.926373        -1.435858
 H         3.548340         2.337823        -0.855062
 H         2.815315        -0.488560        -0.237118
