19
Iteration:  3177charge 0 multiplicity 1
 C         0.060272        -0.667651        -0.402486
 C         0.995742         0.539546        -0.573532
 C         0.498190         1.657167        -1.482570
 C         1.284973         1.823363        -2.778361
 O         2.135177         3.076419        -2.941803
 C         2.812366         1.869161        -2.669437
 C         3.502460         1.503025        -1.282495
 C         2.570529         0.536912        -0.556869
 O         1.781660         1.025239         0.532285
 H        -0.024072        -1.265202        -1.311122
 H         0.456571        -1.465477         0.329560
 H        -0.815474        -0.287395        -0.126128
 H        -0.491994         1.327935        -1.939077
 H         0.317310         2.644894        -0.876080
 H         0.703782         1.676887        -3.675745
 H         3.407229         1.772308        -3.562281
 H         4.305441         0.954224        -1.669405
 H         3.795992         2.459960        -0.780572
 H         3.018825        -0.444419        -0.282821
