19
Iteration:  3285
 C         0.216110        -0.687055        -0.578704
 C         1.101924         0.592321        -0.664858
 C         0.605057         1.757885        -1.505769
 C         1.315295         1.842208        -2.916223
 O         2.041104         3.093850        -2.857514
 C         2.699730         1.683749        -2.709656
 C         3.410591         1.421067        -1.286891
 C         2.531619         0.520369        -0.330244
 O         1.715824         1.104894         0.635091
 H        -0.346113        -0.885337        -1.574985
 H         1.004341        -1.529575        -0.162985
 H        -0.641207        -0.620047         0.177509
 H        -0.521653         1.733806        -1.480901
 H         1.120842         2.757019        -1.044119
 H         0.705703         1.602379        -3.820633
 H         3.070197         1.226558        -3.644882
 H         4.456434         0.969635        -1.322814
 H         3.473521         2.472673        -0.953293
 H         3.033366        -0.333721        -0.097950
