19
Iteration:  1469
 C         0.228641        -0.537422         0.067879
 C         1.024906         0.585099        -0.643977
 C         0.443752         1.230573        -1.895790
 C         1.324004         2.111758        -2.732373
 O         2.190135         3.135645        -2.058214
 C         2.785302         2.002315        -2.676801
 C         3.315978         0.955254        -1.833408
 C         2.482885         0.441299        -0.664057
 O         1.830657         1.449493         0.206273
 H         0.650333        -1.393599        -0.482269
 H         0.138867        -0.549510         1.268299
 H        -0.849995        -0.563094        -0.212833
 H         0.024611         0.451729        -2.547563
 H        -0.481765         1.790320        -1.752649
 H         1.018794         2.433386        -3.682749
 H         3.234050         2.186583        -3.580701
 H         3.562439         0.173556        -2.559728
 H         4.269209         1.315205        -1.420561
 H         2.875744        -0.513197        -0.233318
