19
Iteration:  2216charge 0 multiplicity 1
 C         0.071481        -0.444590        -0.161570
 C         1.155213         0.459554        -0.724693
 C         0.432314         1.346882        -1.866970
 C         1.362716         1.934970        -2.839837
 O         1.984744         3.163804        -2.349251
 C         2.832413         1.851690        -2.682548
 C         3.454066         1.183249        -1.558423
 C         2.596592         0.471907        -0.524419
 O         1.802424         1.321694         0.428197
 H        -0.289070        -1.258093        -0.943164
 H         0.499985        -1.030311         0.611713
 H        -0.899126         0.172271         0.034986
 H        -0.445751         0.787631        -2.361440
 H        -0.038735         2.171971        -1.378581
 H         0.954476         1.977810        -3.930878
 H         3.490246         1.957532        -3.591398
 H         4.148431         0.391558        -1.910648
 H         4.051964         1.800751        -0.900421
 H         3.111433        -0.234306         0.023697
