19
Iteration:  4082charge 0 multiplicity 1
 C         0.305018        -0.694805        -0.237548
 C         1.047937         0.558565        -0.710931
 C         0.432391         1.584691        -1.605037
 C         1.344659         1.902109        -2.767376
 O         2.108809         3.089042        -2.600153
 C         2.820430         1.887657        -2.698787
 C         3.487445         1.218927        -1.470103
 C         2.468423         0.566039        -0.578602
 O         1.597010         1.252478         0.420354
 H        -0.045574        -1.332028        -1.117242
 H         0.942131        -1.369514         0.300793
 H        -0.427343        -0.339633         0.406842
 H        -0.581207         1.259511        -1.944094
 H         0.356360         2.522699        -0.985121
 H         0.938234         1.896296        -3.835434
 H         3.400980         1.761301        -3.615011
 H         4.161898         0.347573        -1.666885
 H         4.137128         1.983894        -0.997672
 H         2.974570        -0.323693        -0.241720
