19
Iteration:  3302charge 0 multiplicity 1
 C         0.274445        -0.668131        -0.509729
 C         1.096685         0.576705        -0.643328
 C         0.623467         1.751987        -1.480030
 C         1.237122         1.847379        -2.793047
 O         2.108028         2.999930        -2.892559
 C         2.789296         1.753497        -2.688129
 C         3.315953         1.451452        -1.293811
 C         2.497807         0.508685        -0.466294
 O         1.670897         1.111759         0.543747
 H        -0.272661        -0.838019        -1.406698
 H         0.829576        -1.489224        -0.307047
 H        -0.435337        -0.547228         0.324461
 H        -0.453782         1.848201        -1.532039
 H         0.887591         2.577024        -0.919664
 H         0.731588         1.576654        -3.715088
 H         3.490775         1.622057        -3.508540
 H         4.338012         1.136971        -1.513337
 H         3.514910         2.314472        -0.662736
 H         2.918396        -0.510359        -0.083963
