19
Iteration:  2353
 C         0.205112        -0.475978        -0.152620
 C         1.071155         0.628869        -0.727412
 C         0.409502         1.227910        -1.949858
 C         1.264381         2.076416        -2.835336
 O         2.016103         2.963709        -2.096059
 C         2.769944         1.854628        -2.666297
 C         3.509550         1.004481        -1.529359
 C         2.568915         0.550181        -0.501430
 O         1.809878         1.507006         0.182888
 H         0.313105        -1.391489        -0.635813
 H         0.575739        -0.581490         0.944692
 H        -0.842897        -0.281349        -0.254428
 H        -0.151425         0.507523        -2.469321
 H        -0.401069         2.000022        -1.597135
 H         0.924250         2.331059        -3.789314
 H         3.422553         2.132634        -3.507469
 H         3.963155         0.173242        -2.082912
 H         4.332000         1.638532        -1.084062
 H         3.098289        -0.306068         0.050379
