19
Iteration:  2653
 C         0.230896        -0.575999        -0.011365
 C         1.061973         0.552730        -0.736915
 C         0.414754         1.196120        -2.008673
 C         1.335841         2.030500        -2.782681
 O         2.136989         3.001260        -2.022083
 C         2.735224         1.872619        -2.683824
 C         3.497347         1.078206        -1.676020
 C         2.590476         0.623373        -0.508235
 O         1.655684         1.525730         0.104734
 H        -0.498843        -1.098250        -0.772712
 H         0.817661        -1.238360         0.572676
 H        -0.490041        -0.037514         0.664835
 H        -0.175015         0.536117        -2.501395
 H        -0.303936         1.963547        -1.526854
 H         0.835648         2.423290        -3.678928
 H         3.345205         2.024174        -3.512783
 H         3.985782         0.165258        -2.107614
 H         4.378531         1.649312        -1.295622
 H         3.057680         0.001784         0.340378
