19
Iteration:  3741
 C         0.187347        -0.718316        -0.282231
 C         1.028273         0.520718        -0.643155
 C         0.381494         1.493349        -1.668319
 C         1.278100         2.039844        -2.803526
 O         2.194694         3.144018        -2.597022
 C         2.811818         1.759786        -2.713145
 C         3.431512         1.276414        -1.466584
 C         2.526280         0.534941        -0.462402
 O         1.774530         1.307556         0.413875
 H        -0.248518        -1.126701        -1.229688
 H         0.747155        -1.602684         0.215088
 H        -0.709819        -0.496939         0.372002
 H        -0.398401         1.030849        -2.258307
 H         0.010329         2.456332        -1.033843
 H         0.851643         1.824553        -3.777069
 H         3.406808         1.652079        -3.647022
 H         4.217582         0.548200        -1.740132
 H         3.926567         2.031816        -0.857254
 H         2.988515        -0.270469        -0.032015
