19
Iteration:  4611
 C         0.287688        -0.725132        -0.386602
 C         1.052460         0.588079        -0.626009
 C         0.487443         1.699122        -1.517711
 C         1.277013         1.963595        -2.718653
 O         2.199911         3.097498        -2.789290
 C         2.762816         1.746603        -2.780296
 C         3.419243         1.374889        -1.409123
 C         2.501471         0.512834        -0.539076
 O         1.643561         1.120602         0.555446
 H        -0.016687        -1.029617        -1.403272
 H         0.999898        -1.379362         0.018700
 H        -0.597572        -0.465259         0.220566
 H        -0.483154         1.284962        -2.036035
 H         0.402065         2.517079        -0.900633
 H         0.782113         1.707915        -3.679668
 H         3.313888         1.394742        -3.719187
 H         4.338515         0.868627        -1.354199
 H         3.566434         2.308409        -0.908172
 H         2.774765        -0.472218        -0.159125
