19
Iteration:  4713
 C         0.173812        -0.588758        -0.229947
 C         1.068026         0.543949        -0.765089
 C         0.482975         1.618909        -1.596570
 C         1.337749         1.895317        -2.827737
 O         2.116602         3.122111        -2.729038
 C         2.810876         1.862397        -2.719293
 C         3.403558         1.380791        -1.347150
 C         2.526759         0.427014        -0.522269
 O         1.739325         1.056321         0.449772
 H        -0.106002        -1.013840        -1.133792
 H         0.680150        -1.220404         0.476399
 H        -0.719714        -0.195233         0.366554
 H        -0.468782         1.291353        -1.990376
 H         0.194500         2.492585        -0.979417
 H         0.905615         1.908779        -3.754025
 H         3.406368         1.526834        -3.590709
 H         4.434636         1.080934        -1.402599
 H         3.444080         2.252824        -0.673226
 H         2.925567        -0.516137        -0.154380
