19
Iteration:  2652charge 0 multiplicity 1
 C         0.237837        -0.575216        -0.012192
 C         1.067013         0.558780        -0.735322
 C         0.421805         1.202509        -2.006905
 C         1.340827         2.036874        -2.784003
 O         2.135577         2.996336        -2.017292
 C         2.727276         1.871047        -2.686814
 C         3.495693         1.076202        -1.684170
 C         2.578486         0.621335        -0.500701
 O         1.657364         1.520936         0.096633
 H        -0.509006        -1.110108        -0.780703
 H         0.799253        -1.228232         0.588502
 H        -0.490004        -0.020073         0.666861
 H        -0.167189         0.495056        -2.515888
 H        -0.351834         1.941094        -1.533919
 H         0.829694         2.422204        -3.643756
 H         3.359620         2.013919        -3.514320
 H         3.992355         0.175347        -2.084396
 H         4.390006         1.659448        -1.274997
 H         3.066612         0.028342         0.355660
