19
Iteration:  1801
 C         0.284350        -0.519330        -0.031209
 C         1.095139         0.518816        -0.621817
 C         0.407984         1.167570        -2.003142
 C         1.312777         2.026482        -2.889573
 O         2.082160         3.129760        -2.216807
 C         2.800958         1.996222        -2.628394
 C         3.438309         0.978211        -1.652244
 C         2.538224         0.554125        -0.436649
 O         1.710242         1.500034         0.240184
 H        -0.048761        -1.241576        -0.883485
 H         0.676688        -1.092132         0.761399
 H        -0.810095        -0.197796         0.319755
 H        -0.012679         0.313927        -2.594058
 H        -0.583040         1.770490        -1.776094
 H         0.941483         2.357379        -3.796249
 H         3.515068         2.146387        -3.471165
 H         3.676743         0.061729        -2.281243
 H         4.383979         1.418040        -1.218800
 H         3.083757        -0.118152         0.338708
