19
Iteration:  4908charge 0 multiplicity 1
 C         0.190682        -0.330629         0.085024
 C         1.082008         0.560955        -0.807544
 C         0.453487         1.107031        -2.122722
 C         1.399133         2.042571        -2.895850
 O         1.879726         3.061384        -1.913129
 C         2.807412         2.057255        -2.503903
 C         3.484481         0.956879        -1.677259
 C         2.491199         0.368660        -0.488566
 O         1.863857         1.485663         0.065583
 H        -0.014372        -1.238546        -0.478621
 H         0.838515        -0.489538         0.960430
 H        -0.820247         0.213937         0.308342
 H         0.275237         0.328318        -2.789787
 H        -0.610958         1.545728        -1.977850
 H         0.993285         2.345870        -4.012704
 H         3.533306         2.461074        -3.311852
 H         3.753261         0.171779        -2.478829
 H         4.428795         1.370856        -1.201653
 H         2.855892        -0.461809         0.093510
