19
Iteration:  4654charge 0 multiplicity 1
 C         0.187892        -0.647639        -0.407604
 C         1.044962         0.614470        -0.618919
 C         0.427050         1.609141        -1.555130
 C         1.355735         1.889807        -2.779108
 O         2.111411         3.064715        -2.753046
 C         2.813324         1.793977        -2.660260
 C         3.449088         1.401758        -1.385471
 C         2.523597         0.482737        -0.548950
 O         1.764924         1.154592         0.536253
 H        -0.595527        -0.689643        -1.206507
 H         0.685504        -1.588313        -0.577257
 H        -0.412340        -0.550716         0.449635
 H        -0.507509         1.088775        -2.053719
 H         0.308948         2.542542        -1.061894
 H         0.768368         1.795327        -3.754079
 H         3.269837         1.579689        -3.651031
 H         4.397419         0.947566        -1.591647
 H         3.554582         2.283544        -0.782343
 H         2.928304        -0.505096        -0.225321
