19
Iteration:  4390charge 0 multiplicity 1
 C         0.189856        -0.552453         0.126559
 C         0.959050         0.488238        -0.680766
 C         0.480182         1.210839        -1.904024
 C         1.462902         2.007541        -2.814799
 O         2.128182         3.208340        -2.264812
 C         2.888282         2.066910        -2.619078
 C         3.466687         1.088511        -1.611739
 C         2.429234         0.424930        -0.671428
 O         1.621023         1.394201         0.183198
 H        -0.498281        -1.221636        -0.506729
 H         0.999638        -1.218088         0.672961
 H        -0.344009         0.036516         0.826991
 H         0.089400         0.238491        -2.489586
 H        -0.352718         1.743842        -1.589603
 H         0.956541         2.315902        -3.778115
 H         3.550232         2.199954        -3.455435
 H         4.016588         0.459674        -2.231852
 H         4.159671         1.646469        -1.060342
 H         2.950216        -0.498251        -0.368641
