19
Iteration:  3875charge 0 multiplicity 1
 C         0.220893        -0.551281        -0.096265
 C         0.997757         0.622555        -0.679498
 C         0.456082         1.327077        -1.894132
 C         1.314102         1.993866        -2.850050
 O         2.022046         3.080585        -2.270645
 C         2.813392         1.914685        -2.607960
 C         3.489384         1.087358        -1.518082
 C         2.531928         0.423472        -0.564490
 O         1.806526         1.446800         0.203880
 H        -0.062029        -1.333701        -0.957414
 H         0.815231        -1.058075         0.638189
 H        -0.648004        -0.240678         0.511855
 H        -0.171760         0.583011        -2.411505
 H        -0.326860         2.119103        -1.501489
 H         0.854608         2.302037        -3.838488
 H         3.445242         1.906105        -3.471047
 H         4.291228         0.385058        -1.885127
 H         3.972147         1.709552        -0.774483
 H         2.725096        -0.468141        -0.107100
