19
Iteration:  2128
 C         0.194906        -0.538113        -0.238075
 C         1.108525         0.609565        -0.710781
 C         0.410868         1.260438        -1.816954
 C         1.337270         1.941328        -2.753255
 O         2.066547         3.055662        -2.197237
 C         2.773408         1.882904        -2.712509
 C         3.503284         1.034118        -1.563420
 C         2.585784         0.636219        -0.524606
 O         1.693813         1.468119         0.257821
 H         0.133386        -1.324616        -1.082026
 H         0.594507        -0.959867         0.746653
 H        -0.868801        -0.131212         0.005634
 H        -0.419971         0.514985        -2.230000
 H        -0.085187         2.094517        -1.298673
 H         0.798507         2.142271        -3.785162
 H         3.446884         1.928737        -3.626565
 H         3.982932         0.147668        -2.028826
 H         4.373714         1.621576        -1.250873
 H         2.943193        -0.176590         0.032109
