19
Iteration:  2454charge 0 multiplicity 1
 C         0.194336        -0.609815        -0.242174
 C         0.982409         0.588702        -0.699750
 C         0.336004         1.365123        -1.813338
 C         1.341077         1.869915        -2.840105
 O         2.100009         3.037867        -2.315568
 C         2.815059         1.823001        -2.680447
 C         3.504835         1.190381        -1.522066
 C         2.500472         0.588478        -0.529753
 O         1.834585         1.427080         0.371784
 H        -0.549131        -0.911829        -1.033602
 H         0.776549        -1.485983        -0.045287
 H        -0.240392        -0.283977         0.697858
 H        -0.488859         0.876772        -2.272049
 H        -0.188467         2.299565        -1.348490
 H         0.937140         2.014441        -3.869638
 H         3.410125         2.005433        -3.577702
 H         4.265978         0.452170        -1.887849
 H         3.955412         2.132629        -1.133932
 H         3.113236        -0.180645         0.118031
