19
Iteration:  3204
 C         0.191235        -0.624444        -0.356472
 C         1.065899         0.532618        -0.675326
 C         0.614790         1.652982        -1.535336
 C         1.319452         1.866740        -2.808266
 O         2.158917         3.158303        -2.881284
 C         2.782402         1.784359        -2.739193
 C         3.265267         1.470040        -1.337791
 C         2.547361         0.475963        -0.491056
 O         1.702119         0.978287         0.595794
 H         0.314135        -1.492622        -1.023240
 H         0.506614        -1.015670         0.572888
 H        -0.951749        -0.240166        -0.241130
 H        -0.452168         1.793531        -1.651275
 H         0.903159         2.462064        -0.945796
 H         0.819004         1.665138        -3.771373
 H         3.224453         1.525070        -3.749055
 H         4.418072         1.434426        -1.392433
 H         3.089016         2.516162        -0.980692
 H         2.951538        -0.598189        -0.324608
