19
Iteration:  2630charge 0 multiplicity 1
 C         0.254051        -0.468320         0.016057
 C         1.070387         0.551609        -0.738632
 C         0.443273         1.042109        -2.021000
 C         1.301467         2.138209        -2.683302
 O         2.153823         3.025025        -2.065617
 C         2.763306         1.928757        -2.711493
 C         3.436732         1.010110        -1.647306
 C         2.518010         0.563806        -0.600628
 O         1.689366         1.578022         0.159763
 H        -0.186285        -1.221467        -0.821813
 H         0.920717        -0.884914         0.710577
 H        -0.687649        -0.032352         0.480686
 H         0.283385         0.238852        -2.674660
 H        -0.616991         1.378389        -1.730506
 H         0.777671         2.455713        -3.599357
 H         3.474340         2.150824        -3.476950
 H         3.950368         0.121839        -2.062161
 H         4.360388         1.450963        -1.116598
 H         2.819641        -0.341474         0.035172
