19
Iteration:  1011charge 0 multiplicity 1
 C         0.128655        -0.430780        -0.135646
 C         1.064170         0.555476        -0.645730
 C         0.476868         1.614056        -1.503959
 C         1.186513         2.277665        -2.625937
 O         2.208471         3.220603        -2.264699
 C         2.513697         1.841890        -2.805643
 C         3.389769         1.091553        -1.794664
 C         2.534634         0.260715        -0.853828
 O         2.106807         0.911663         0.373465
 H        -0.711148         0.181338         0.360719
 H        -0.187025        -1.056721        -1.012505
 H         0.485735        -0.986624         0.660333
 H        -0.261517         1.017890        -2.107846
 H        -0.217728         2.304857        -0.947639
 H         0.529909         2.504554        -3.465804
 H         2.932803         1.946861        -3.855857
 H         4.103897         0.482166        -2.340489
 H         3.959524         1.869978        -1.339745
 H         2.841155        -0.769317        -0.687859
