19
Iteration:   877
 C         0.130473        -0.358658         0.140126
 C         1.112808         0.480641        -0.724337
 C         0.385008         1.393738        -1.741589
 C         1.263275         2.306720        -2.645294
 O         2.045622         3.156050        -1.926057
 C         2.775240         2.091646        -2.572606
 C         3.337261         0.859262        -2.036626
 C         2.584366         0.279658        -0.859795
 O         2.063082         1.164113         0.101110
 H        -0.188596         0.340005         0.978367
 H        -0.779422        -0.668094        -0.452978
 H         0.484277        -1.275730         0.492092
 H        -0.178865         0.554744        -2.487931
 H        -0.474414         1.972605        -1.212144
 H         0.810344         2.789166        -3.483168
 H         3.228701         2.457096        -3.595548
 H         3.032864         0.157538        -2.833548
 H         4.392183         0.777923        -1.882303
 H         2.922729        -0.715253        -0.421431
