19
Iteration:  1790charge 0 multiplicity 1
 C         0.209479        -0.522428        -0.003460
 C         1.097721         0.532833        -0.661310
 C         0.521048         1.100699        -1.979273
 C         1.363870         2.096783        -2.832800
 O         2.019584         3.169916        -2.253221
 C         2.817369         1.997985        -2.661295
 C         3.394072         0.982793        -1.629233
 C         2.570254         0.557624        -0.450949
 O         1.686538         1.455449         0.252818
 H         0.182144        -1.408138        -0.724476
 H         0.568420        -0.834628         0.969600
 H        -0.786829         0.059235         0.088257
 H         0.209603         0.265913        -2.646286
 H        -0.412277         1.707349        -1.606928
 H         0.965119         2.264029        -3.782031
 H         3.384611         2.207857        -3.571514
 H         3.349143         0.045634        -2.273412
 H         4.485257         1.074991        -1.465551
 H         3.102710        -0.181952         0.255834
