19
Iteration:  1646
 C         0.263831        -0.611984        -0.154766
 C         1.065114         0.582883        -0.684748
 C         0.360678         1.332837        -1.873247
 C         1.324482         2.135914        -2.742765
 O         2.130239         3.171997        -2.289923
 C         2.708365         1.730772        -2.752896
 C         3.443201         1.085955        -1.650149
 C         2.574046         0.541134        -0.492999
 O         1.758369         1.388895         0.393538
 H        -0.097644        -0.425435         0.838572
 H        -0.592655        -0.721929        -0.927963
 H         0.901891        -1.620403        -0.041879
 H        -0.114952         0.599377        -2.586538
 H        -0.452700         1.999476        -1.352084
 H         0.858474         2.404469        -3.616574
 H         3.260149         1.759679        -3.601468
 H         3.863869         0.176925        -2.145145
 H         4.314652         1.756828        -1.471788
 H         2.999678        -0.315630         0.085057
