19
Iteration:  2394charge 0 multiplicity 1
 C         0.067391        -0.549639         0.118673
 C         0.989073         0.480517        -0.611256
 C         0.491634         1.240958        -1.891529
 C         1.437034         2.070255        -2.837695
 O         2.044114         3.244315        -2.460601
 C         2.892791         2.012936        -2.680263
 C         3.508119         1.189444        -1.560341
 C         2.472525         0.378101        -0.597458
 O         1.741423         1.280675         0.262195
 H        -0.331513        -1.376305        -0.493880
 H         0.694156        -1.050295         0.970333
 H        -0.871404        -0.128993         0.587465
 H         0.092744         0.455503        -2.571127
 H        -0.275003         1.860348        -1.563753
 H         0.958709         2.160590        -3.799123
 H         3.662278         2.226725        -3.437444
 H         4.031643         0.404042        -2.098994
 H         4.332715         1.740000        -1.037972
 H         2.866281        -0.407032        -0.057163
