19
Iteration:  2100
 C         0.131507        -0.532156        -0.038198
 C         1.063080         0.564725        -0.625261
 C         0.455283         1.153770        -1.962682
 C         1.388786         2.039762        -2.854165
 O         2.000769         3.129269        -2.283885
 C         2.855600         2.056639        -2.630835
 C         3.402322         1.019465        -1.584713
 C         2.516298         0.492826        -0.554226
 O         1.834093         1.450630         0.297421
 H        -0.277954        -1.123128        -0.837470
 H         0.465293        -1.281699         0.766484
 H        -0.707405         0.065836         0.238276
 H         0.213267         0.321723        -2.493807
 H        -0.498409         1.681525        -1.720002
 H         1.093920         2.104805        -3.848342
 H         3.595274         2.213593        -3.406029
 H         3.890303         0.293730        -2.245871
 H         4.267063         1.507354        -1.080840
 H         2.880778        -0.442537         0.028280
