19
Iteration:  3015
 C         0.141480        -0.577255        -0.104384
 C         1.051388         0.477993        -0.734236
 C         0.436091         1.293333        -1.839379
 C         1.305311         2.051149        -2.751363
 O         2.101941         3.193994        -2.476067
 C         2.809732         1.902316        -2.639607
 C         3.448377         1.161499        -1.473207
 C         2.555825         0.492148        -0.486598
 O         1.764269         1.348452         0.274916
 H         0.083021        -1.431411        -0.793437
 H         0.733310        -1.178550         0.709009
 H        -0.816427        -0.205033         0.255709
 H        -0.245006         0.742794        -2.533076
 H        -0.197213         2.002671        -1.411399
 H         0.860317         2.229868        -3.665648
 H         3.409624         1.887693        -3.497962
 H         4.045063         0.466715        -1.976938
 H         4.298682         1.787959        -0.960508
 H         3.023788        -0.440308         0.045629
