19
Iteration:  3798charge 0 multiplicity 1
 C         0.174099        -0.624836        -0.285925
 C         1.067074         0.558492        -0.654882
 C         0.476350         1.476222        -1.645689
 C         1.305270         1.963853        -2.828359
 O         2.143258         3.184391        -2.690023
 C         2.733635         1.902996        -2.661322
 C         3.427046         1.243664        -1.453191
 C         2.513247         0.485568        -0.485557
 O         1.795280         1.224182         0.490584
 H         0.198070        -1.416770        -1.162198
 H         0.656232        -1.070511         0.565846
 H        -0.872528        -0.367411        -0.074793
 H        -0.452189         0.982827        -2.112476
 H        -0.151447         2.340414        -1.143436
 H         0.843877         1.688408        -3.811945
 H         3.448219         1.584534        -3.371590
 H         4.045613         0.442923        -1.903833
 H         4.132896         1.801859        -0.877512
 H         2.811798        -0.439007        -0.128897
