19
Iteration:  4597
 C         0.212381        -0.749977        -0.394676
 C         0.965507         0.545539        -0.521413
 C         0.487307         1.638035        -1.463527
 C         1.383421         1.921940        -2.797129
 O         2.198539         3.156853        -2.873458
 C         2.822608         1.835648        -2.759485
 C         3.394505         1.386587        -1.415758
 C         2.453358         0.514547        -0.537916
 O         1.697888         1.110817         0.563810
 H         0.135491        -1.397388        -1.306574
 H         0.658777        -1.342251         0.448658
 H        -0.716205        -0.727413        -0.021257
 H        -0.623691         1.494613        -1.620232
 H         0.407710         2.626278        -0.946510
 H         0.786704         1.810202        -3.766342
 H         3.305759         1.571039        -3.658182
 H         4.294286         0.842088        -1.773879
 H         3.767264         2.247340        -0.859982
 H         3.046367        -0.369704        -0.256878
