19
Iteration:  3724
 C         0.193578        -0.635308        -0.214594
 C         1.090655         0.544925        -0.628470
 C         0.358742         1.427420        -1.672788
 C         1.330751         2.033514        -2.775855
 O         2.163435         3.255601        -2.735118
 C         2.762844         1.927663        -2.667780
 C         3.552718         1.154395        -1.448117
 C         2.555032         0.460550        -0.479537
 O         1.647441         1.213842         0.439538
 H        -0.226201        -1.186995        -1.078857
 H         0.764461        -1.278228         0.344559
 H        -0.628231        -0.276806         0.347471
 H        -0.451354         0.825615        -2.260064
 H        -0.175633         2.145539        -1.233235
 H         0.881816         2.051545        -3.811939
 H         3.337204         1.620416        -3.538118
 H         4.208474         0.363282        -1.870038
 H         4.252512         1.925056        -1.050727
 H         2.965106        -0.502562         0.133538
