19
Iteration:  3092charge 0 multiplicity 1
 C         0.236894        -0.654663        -0.301656
 C         1.004507         0.531239        -0.627464
 C         0.422404         1.560926        -1.520835
 C         1.292626         2.014008        -2.760267
 O         2.185018         3.152320        -2.864520
 C         2.793931         1.910603        -2.719936
 C         3.508897         1.329337        -1.365011
 C         2.493390         0.447382        -0.508743
 O         1.664653         1.126501         0.441839
 H         0.003699        -1.232701        -1.207636
 H         0.923397        -1.188033         0.469945
 H        -0.710592        -0.541049         0.319554
 H        -0.482729         1.133877        -2.007057
 H         0.027615         2.232970        -0.888546
 H         0.878962         1.715890        -3.694536
 H         3.278425         1.416323        -3.574700
 H         4.357416         0.775389        -1.713327
 H         4.079923         2.129778        -0.742014
 H         3.048595        -0.418886         0.046661
