19
Iteration:  3795
 C         0.187639        -0.631759        -0.302457
 C         1.076157         0.582852        -0.664463
 C         0.435545         1.511881        -1.656975
 C         1.296093         1.945472        -2.843707
 O         2.128656         3.161828        -2.669287
 C         2.744756         1.873506        -2.640147
 C         3.453625         1.255999        -1.462857
 C         2.506011         0.511992        -0.468373
 O         1.795277         1.208614         0.483417
 H         0.128289        -1.419258        -1.103392
 H         0.751400        -1.101725         0.600642
 H        -0.894992        -0.375110        -0.056641
 H        -0.369948         1.053168        -2.096878
 H        -0.162114         2.412963        -1.176825
 H         0.795608         1.780465        -3.777951
 H         3.477027         1.507659        -3.406701
 H         4.079610         0.461680        -1.913889
 H         4.177238         1.785197        -0.807512
 H         2.873254        -0.476633        -0.210448
