19
Iteration:  2447
 C         0.205382        -0.561548        -0.221631
 C         1.071164         0.566051        -0.666618
 C         0.330931         1.429459        -1.838758
 C         1.320478         1.907312        -2.789941
 O         2.059591         3.023637        -2.320751
 C         2.812078         1.811392        -2.732413
 C         3.526682         1.207781        -1.514531
 C         2.531883         0.568221        -0.535801
 O         1.797537         1.374644         0.352289
 H        -0.665591        -0.777053        -0.855947
 H         0.715206        -1.482580         0.010534
 H        -0.395350        -0.247656         0.656429
 H        -0.315207         0.638223        -2.453578
 H        -0.260931         2.244100        -1.495380
 H         1.093879         1.964272        -3.929578
 H         3.383540         1.971747        -3.658423
 H         4.347885         0.517515        -1.721027
 H         3.877355         2.034257        -0.907317
 H         2.958016        -0.231179         0.060409
