19
Iteration:  1777charge 0 multiplicity 1
 C         0.118788        -0.487086        -0.020268
 C         1.131430         0.487986        -0.700010
 C         0.606259         1.117015        -1.915235
 C         1.385067         1.995063        -2.760325
 O         2.015812         3.221730        -2.233997
 C         2.814681         2.018432        -2.649055
 C         3.369030         0.990579        -1.732132
 C         2.549673         0.572787        -0.497539
 O         1.691986         1.465552         0.261848
 H         0.163814        -1.564452        -0.218303
 H         0.480375        -0.424847         1.087653
 H        -0.956915        -0.264797        -0.038846
 H         0.460823         0.292046        -2.538520
 H        -0.486174         1.453975        -1.767415
 H         0.897082         2.137874        -3.791156
 H         3.631350         2.243375        -3.534976
 H         3.455251         0.014987        -2.319191
 H         4.396773         1.293143        -1.415227
 H         2.965638        -0.349998         0.001202
