19
Iteration:  3694charge 0 multiplicity 1
 C         0.144633        -0.582078        -0.102337
 C         1.012731         0.543344        -0.648641
 C         0.418841         1.380863        -1.812993
 C         1.385952         1.958989        -2.909264
 O         2.077420         3.172268        -2.460279
 C         2.882154         1.940710        -2.699363
 C         3.389962         1.222332        -1.534179
 C         2.500333         0.481643        -0.561813
 O         1.796746         1.214913         0.439378
 H         0.016072        -1.397577        -0.804675
 H         0.657168        -1.044603         0.776722
 H        -0.876784        -0.245934         0.259100
 H        -0.328310         0.926084        -2.363506
 H         0.086961         2.398691        -1.361659
 H         1.022682         2.044863        -3.910037
 H         3.637524         1.894040        -3.488669
 H         4.071051         0.402528        -1.806408
 H         4.027062         2.042885        -1.063653
 H         2.917461        -0.417300        -0.069345
