19
Iteration:  4898
 C         0.146610        -0.294296         0.055594
 C         1.050120         0.542283        -0.774288
 C         0.436024         1.047774        -2.105850
 C         1.428860         1.988146        -2.790993
 O         1.861047         3.080353        -1.981977
 C         2.858871         2.101493        -2.438784
 C         3.500600         0.948387        -1.653203
 C         2.560731         0.446576        -0.669541
 O         1.829968         1.464856         0.055248
 H        -0.154546        -1.226090        -0.324215
 H         0.675941        -0.526426         0.999923
 H        -0.765458         0.138363         0.543055
 H         0.151242         0.218110        -2.704254
 H        -0.379630         1.607632        -1.796425
 H         1.117116         2.381091        -3.819566
 H         3.518740         2.575304        -3.227988
 H         3.645368         0.175005        -2.408246
 H         4.515950         1.104970        -1.251214
 H         2.867603        -0.381315        -0.045431
