19
Iteration:  1719
 C         0.258021        -0.351169         0.022113
 C         1.111511         0.548980        -0.810802
 C         0.344016         1.184835        -1.958320
 C         1.340496         1.977405        -2.772457
 O         2.016949         3.036132        -2.090156
 C         2.806566         1.944576        -2.621160
 C         3.469917         1.119166        -1.534825
 C         2.560019         0.416940        -0.654335
 O         1.731457         1.409899         0.111403
 H         0.956709        -0.988333         0.566104
 H        -0.346136         0.308519         0.790615
 H        -0.394774        -0.976854        -0.562201
 H        -0.285239         0.502992        -2.465680
 H        -0.247784         1.933345        -1.447261
 H         0.996175         2.225370        -3.894451
 H         3.468798         2.205796        -3.618560
 H         4.140607         0.388874        -2.030796
 H         4.151871         1.774108        -0.961463
 H         2.928736        -0.452289        -0.148265
