19
Iteration:  3292charge 0 multiplicity 1
 C         0.250656        -0.662704        -0.559256
 C         1.072397         0.575982        -0.686552
 C         0.661274         1.759424        -1.462906
 C         1.303690         1.851061        -2.884106
 O         2.046816         3.037367        -2.849864
 C         2.696933         1.730441        -2.736955
 C         3.340436         1.423262        -1.244907
 C         2.559263         0.509385        -0.382367
 O         1.692279         1.139730         0.583293
 H        -0.278533        -0.989811        -1.426193
 H         0.907876        -1.416786        -0.338480
 H        -0.483056        -0.557572         0.310607
 H        -0.372029         1.773046        -1.520370
 H         1.037926         2.616293        -0.988021
 H         0.774586         1.597632        -3.822449
 H         3.261247         1.308073        -3.556353
 H         4.316868         0.856059        -1.280412
 H         3.388303         2.418840        -0.824665
 H         3.033817        -0.539720        -0.198526
