19
Iteration:  4845
 C         0.181498        -0.450350        -0.051001
 C         1.079138         0.491689        -0.705274
 C         0.415467         1.223971        -1.960636
 C         1.302066         2.112632        -2.802020
 O         2.127671         3.114801        -2.208769
 C         2.750623         1.896103        -2.675728
 C         3.458216         1.122511        -1.590677
 C         2.564523         0.480200        -0.553850
 O         1.757222         1.352668         0.298992
 H        -0.398497        -1.065772        -0.709686
 H         0.587805        -1.285323         0.640206
 H        -0.581950         0.282578         0.385579
 H         0.382739         0.352720        -2.789373
 H        -0.660189         1.506409        -1.754578
 H         1.017388         2.437595        -3.765172
 H         3.388086         2.043078        -3.587048
 H         4.100768         0.414891        -2.055044
 H         4.057431         1.881434        -1.088229
 H         2.965347        -0.415607        -0.031451
