19
Iteration:  3466
 C         0.245036        -0.731487        -0.368900
 C         1.024876         0.545618        -0.662417
 C         0.357860         1.615875        -1.552574
 C         1.331327         1.938244        -2.732636
 O         2.171572         3.016950        -2.561745
 C         2.812383         1.697477        -2.718915
 C         3.502423         1.365785        -1.482004
 C         2.535193         0.621951        -0.562099
 O         1.679667         1.273612         0.406696
 H        -0.055321        -1.261621        -1.275152
 H         0.659572        -1.404106         0.321014
 H        -0.732666        -0.406175         0.118557
 H        -0.722679         1.341788        -1.921446
 H         0.100620         2.466417        -0.961046
 H         0.820673         2.163958        -3.657849
 H         3.311056         1.481253        -3.677208
 H         4.327495         0.695268        -1.690799
 H         3.964125         2.200331        -0.979343
 H         3.034295        -0.422646        -0.232184
