19
Iteration:   408
 C         0.238896        -0.603927        -0.190135
 C         1.041099         0.556487        -0.698233
 C         0.302890         1.607267        -1.519672
 C         1.201871         2.373070        -2.540875
 O         2.323997         3.072421        -2.205815
 C         2.593768         1.887737        -2.836699
 C         3.365731         0.953319        -1.888768
 C         2.532055         0.383847        -0.728527
 O         1.964467         1.164653         0.327575
 H         0.508263        -0.739100         1.015148
 H        -0.893355        -0.416929        -0.229669
 H         0.617996        -1.572796        -0.535730
 H        -0.493038         1.116036        -2.137082
 H        -0.126316         2.363287        -0.854555
 H         0.582593         2.726733        -3.437791
 H         2.912969         1.945412        -3.932683
 H         3.662634         0.045036        -2.440655
 H         4.286424         1.539152        -1.556199
 H         3.057498        -0.546626        -0.386863
