19
Iteration:  1954charge 0 multiplicity 1
 C         0.241706        -0.657386        -0.075834
 C         0.985601         0.436567        -0.711799
 C         0.292000         1.382576        -1.795672
 C         1.343971         2.027637        -2.729370
 O         2.212682         3.140733        -2.399774
 C         2.797384         1.812872        -2.677162
 C         3.492462         1.218547        -1.526257
 C         2.518608         0.524038        -0.534497
 O         1.714924         1.420883         0.198536
 H         0.445819        -1.728069        -0.409925
 H         0.506743        -0.700533         0.908441
 H        -0.848358        -0.375565        -0.149351
 H        -0.274108         0.763045        -2.388138
 H        -0.371111         2.087214        -1.229082
 H         1.006608         2.216970        -3.816134
 H         3.311581         1.830683        -3.740982
 H         4.152541         0.372651        -1.843555
 H         4.133523         1.996632        -1.053515
 H         3.068590        -0.233692         0.154980
