19
Iteration:   101
 C         0.224129        -0.555806        -0.031081
 C         1.003359         0.527066        -0.627264
 C         0.296471         1.575409        -1.567973
 C         1.214348         2.311625        -2.622691
 O         2.366339         3.290581        -2.383238
 C         2.654840         1.934962        -2.872015
 C         3.421538         1.075118        -1.744660
 C         2.425457         0.210216        -0.852865
 O         1.985226         0.956578         0.378494
 H         0.919770        -1.307482         0.611254
 H        -0.380293        -0.000104         0.677347
 H        -0.333771        -1.134401        -0.654015
 H        -0.490768         1.086848        -2.074419
 H        -0.256914         2.350185        -0.951459
 H         0.509369         2.760247        -3.375837
 H         3.019395         1.984010        -3.895724
 H         4.171339         0.482400        -2.173080
 H         3.798586         1.844296        -1.038130
 H         2.588317        -0.822010        -0.619202
