19
Iteration:  4140
 C         0.137699        -0.521386        -0.290832
 C         1.123692         0.560722        -0.692110
 C         0.413107         1.506903        -1.730798
 C         1.295165         1.932242        -2.770364
 O         2.082713         3.093585        -2.629412
 C         2.790245         1.782167        -2.701472
 C         3.435646         1.419575        -1.361012
 C         2.594892         0.461924        -0.543528
 O         1.807371         1.086095         0.481966
 H        -0.006220        -1.306447        -1.049328
 H         0.505525        -0.930023         0.714972
 H        -0.871273        -0.105283        -0.168156
 H        -0.383470         0.981611        -2.111865
 H        -0.058952         2.492965        -1.235464
 H         0.799756         1.866018        -3.746587
 H         3.267131         1.530975        -3.632319
 H         4.469273         0.975230        -1.533458
 H         3.603630         2.445663        -1.083848
 H         2.987442        -0.392945        -0.104100
