19
Iteration:  3632charge 0 multiplicity 1
 C         0.150541        -0.556281         0.020043
 C         1.051600         0.520683        -0.660903
 C         0.519207         1.194011        -1.988509
 C         1.324877         2.146970        -2.836280
 O         2.126873         3.114736        -2.151099
 C         2.823660         1.984958        -2.641503
 C         3.438941         0.969721        -1.663655
 C         2.547442         0.505393        -0.500438
 O         1.668596         1.484533         0.165149
 H        -0.044388        -1.445181        -0.550617
 H         0.700365        -0.792932         1.016844
 H        -0.835798        -0.101396         0.277666
 H         0.195087         0.340602        -2.670714
 H        -0.423652         1.491037        -1.786566
 H         0.675701         2.309394        -3.700672
 H         3.583738         2.266173        -3.418213
 H         3.755371         0.152888        -2.328687
 H         4.361492         1.392425        -1.311321
 H         3.062458        -0.226849         0.117002
