19
Iteration:  2707
 C         0.185800        -0.542062        -0.015816
 C         1.030277         0.514480        -0.715262
 C         0.388281         1.286577        -1.889226
 C         1.305149         2.045384        -2.978946
 O         2.086178         3.227635        -2.493146
 C         2.839243         1.974480        -2.652295
 C         3.432555         1.162575        -1.462499
 C         2.494701         0.424763        -0.543381
 O         1.858929         1.258206         0.459428
 H        -0.226887        -1.248706        -0.881665
 H         0.728297        -1.115630         0.703901
 H        -0.738198        -0.061787         0.412420
 H        -0.086314         0.446970        -2.368739
 H        -0.373711         1.950459        -1.329700
 H         1.023453         2.073381        -3.991804
 H         3.475595         2.046735        -3.460236
 H         4.144277         0.529967        -1.984282
 H         4.029127         1.883531        -0.807022
 H         2.827465        -0.518727        -0.054597
