19
Iteration:   925charge 0 multiplicity 1
 C         0.206668        -0.594655        -0.032950
 C         1.038395         0.573467        -0.638140
 C         0.320293         1.540496        -1.654125
 C         1.191734         2.387975        -2.458059
 O         2.370665         3.054897        -2.026426
 C         2.586234         1.885894        -2.788386
 C         3.341255         0.948035        -2.011667
 C         2.480910         0.385927        -0.886576
 O         2.019473         1.218531         0.219031
 H        -0.754605        -0.212112         0.439000
 H         0.018601        -1.505900        -0.639909
 H         0.925020        -0.960976         0.799054
 H        -0.112684         0.969493        -2.650906
 H        -0.648720         1.983366        -1.167520
 H         0.683786         2.852117        -3.342366
 H         3.020085         2.203162        -3.656904
 H         3.617285         0.039560        -2.557259
 H         4.223756         1.401576        -1.544857
 H         2.849788        -0.521798        -0.500669
