19
Iteration:  3085charge 0 multiplicity 1
 C         0.266613        -0.619694        -0.276445
 C         1.031308         0.560418        -0.615597
 C         0.395220         1.540918        -1.625029
 C         1.260794         1.964287        -2.774491
 O         2.173014         3.183722        -2.839850
 C         2.805424         1.869936        -2.638728
 C         3.472429         1.341376        -1.387645
 C         2.521249         0.379547        -0.526945
 O         1.697360         1.147349         0.480736
 H         0.224432        -1.256813        -1.155315
 H         0.788474        -1.261356         0.357719
 H        -0.800241        -0.306789         0.109023
 H        -0.541024         1.170842        -2.098386
 H         0.068378         2.403528        -0.842094
 H         0.763248         1.775986        -3.772564
 H         3.334181         1.656767        -3.643496
 H         4.334248         0.612272        -1.706034
 H         3.885131         2.070589        -0.708400
 H         3.014633        -0.454878        -0.052988
