19
Iteration:  1333charge 0 multiplicity 1
 C         0.029751        -0.545616        -0.210308
 C         1.072768         0.546807        -0.577653
 C         0.427114         1.492362        -1.597841
 C         1.218520         2.161037        -2.675679
 O         2.194492         3.078775        -2.278418
 C         2.690474         1.901956        -2.814454
 C         3.428553         1.064566        -1.804701
 C         2.621767         0.462248        -0.611766
 O         1.946812         1.225709         0.351688
 H        -0.634113        -0.165615         0.539392
 H        -0.390381        -0.765430        -1.147213
 H         0.439149        -1.461700         0.298865
 H         0.055016         0.755045        -2.205043
 H        -0.389659         2.126302        -1.140449
 H         0.589973         2.369903        -3.640589
 H         3.104894         1.976974        -3.795908
 H         3.796598         0.173947        -2.382811
 H         4.246481         1.646891        -1.359403
 H         3.099841        -0.379116        -0.210049
