19
Iteration:  3872
 C         0.234065        -0.531329        -0.110825
 C         1.011099         0.641870        -0.701108
 C         0.422058         1.338295        -1.878784
 C         1.325560         1.997949        -2.847234
 O         2.026297         3.076624        -2.279637
 C         2.804995         1.889876        -2.620285
 C         3.513083         1.106638        -1.529639
 C         2.517004         0.404686        -0.552368
 O         1.787998         1.422920         0.213497
 H         0.016421        -1.311156        -0.890580
 H         0.843099        -1.036722         0.658447
 H        -0.659392        -0.226054         0.495614
 H        -0.187108         0.673389        -2.324628
 H        -0.352356         2.067512        -1.452088
 H         0.866100         2.220820        -3.807602
 H         3.449580         1.998577        -3.542012
 H         4.356738         0.427785        -1.751521
 H         3.923004         1.756123        -0.719399
 H         2.813903        -0.584590        -0.118063
