19
Iteration:  2223charge 0 multiplicity 1
 C         0.042318        -0.425112        -0.245756
 C         1.122300         0.526814        -0.728935
 C         0.460570         1.317236        -1.820681
 C         1.374043         1.930163        -2.860968
 O         1.969953         3.050248        -2.317977
 C         2.793437         1.913397        -2.697724
 C         3.452979         1.166080        -1.516308
 C         2.610655         0.475228        -0.493737
 O         1.824130         1.325446         0.360888
 H        -0.383586        -1.104534        -0.925818
 H         0.344207        -0.973064         0.762625
 H        -0.667737         0.205392         0.243581
 H        -0.308977         0.689382        -2.225656
 H         0.077111         2.169394        -1.222171
 H         1.002401         2.041124        -3.885355
 H         3.437620         2.104650        -3.527077
 H         4.276098         0.548860        -1.934304
 H         4.015347         1.967097        -0.964498
 H         3.259465        -0.361866        -0.028157
