19
Iteration:  4844charge 0 multiplicity 1
 C         0.183458        -0.453211        -0.055109
 C         1.083495         0.499478        -0.705818
 C         0.411761         1.228097        -1.947449
 C         1.303419         2.106228        -2.796369
 O         2.129178         3.114675        -2.214105
 C         2.748147         1.893455        -2.676502
 C         3.458051         1.123936        -1.588944
 C         2.561056         0.473089        -0.556461
 O         1.750764         1.355650         0.303594
 H        -0.372625        -1.067622        -0.725968
 H         0.638381        -1.285990         0.587147
 H        -0.580803         0.292423         0.364119
 H         0.364847         0.364834        -2.764641
 H        -0.628523         1.497328        -1.774126
 H         1.038575         2.468369        -3.796465
 H         3.395214         2.017472        -3.616764
 H         4.081643         0.412125        -2.042304
 H         4.042562         1.889618        -1.075916
 H         2.983833        -0.414155        -0.047607
