19
Iteration:   415charge 0 multiplicity 1
 C         0.203400        -0.612002        -0.133968
 C         1.004710         0.494025        -0.667235
 C         0.362332         1.639679        -1.481725
 C         1.196103         2.292341        -2.516148
 O         2.301540         3.142170        -2.192017
 C         2.628501         1.855584        -2.893515
 C         3.404150         1.014876        -1.897342
 C         2.558183         0.350704        -0.753826
 O         1.933109         1.186906         0.244984
 H         0.292630        -0.580498         0.900187
 H        -0.792097        -0.507940        -0.389655
 H         0.524526        -1.624769        -0.585737
 H        -0.578727         1.177790        -1.979119
 H        -0.004166         2.330240        -0.683722
 H         0.759151         2.756508        -3.337742
 H         2.953171         1.929639        -3.868804
 H         3.614131         0.071470        -2.458312
 H         4.261228         1.420952        -1.441052
 H         2.974050        -0.512743        -0.264999
