19
Iteration:  4170
 C         0.162196        -0.663791        -0.139134
 C         0.974972         0.529852        -0.664792
 C         0.423274         1.496588        -1.660958
 C         1.377558         1.919135        -2.769780
 O         2.173512         3.140893        -2.625377
 C         2.876178         1.875119        -2.712751
 C         3.444282         1.393933        -1.387838
 C         2.448819         0.451214        -0.659773
 O         1.749541         1.188979         0.358053
 H         0.154118        -1.560765        -0.829120
 H         0.670251        -1.111873         0.761553
 H        -0.782664        -0.442943         0.168687
 H        -0.534954         1.147728        -2.117603
 H         0.179570         2.466490        -1.198550
 H         0.792327         1.835358        -3.733084
 H         3.417464         1.707548        -3.637221
 H         4.398946         0.840045        -1.553982
 H         3.569021         2.409560        -0.832645
 H         2.916451        -0.448029        -0.208424
