19
Iteration:  1780
 C         0.138900        -0.498039        -0.008555
 C         1.144165         0.512217        -0.713038
 C         0.610330         1.119940        -1.913045
 C         1.375393         2.019203        -2.776394
 O         2.007690         3.218846        -2.240078
 C         2.831487         2.006815        -2.666415
 C         3.362329         0.991408        -1.712348
 C         2.573846         0.572592        -0.487011
 O         1.680584         1.465652         0.263921
 H         0.074934        -1.593266        -0.401359
 H         0.471429        -0.430321         0.973713
 H        -1.011167        -0.286953         0.075235
 H         0.373870         0.251842        -2.660054
 H        -0.477877         1.443158        -1.683180
 H         0.964108         2.104305        -3.685604
 H         3.511361         2.193924        -3.425607
 H         3.332580        -0.006083        -2.220212
 H         4.403729         1.229858        -1.438326
 H         2.941864        -0.380821         0.020954
