19
Iteration:   663
 C         0.161393        -0.396897         0.053557
 C         1.010444         0.632401        -0.625746
 C         0.378332         1.626971        -1.619463
 C         1.280152         2.170458        -2.715709
 O         2.033543         3.243318        -2.201188
 C         2.783705         2.046967        -2.743519
 C         3.402387         1.021598        -1.773803
 C         2.394134         0.161759        -0.905892
 O         2.137316         0.870463         0.264053
 H        -0.149265         0.060436         0.957495
 H        -0.588863        -0.909807        -0.561121
 H         0.758854        -1.124025         0.382048
 H        -0.343031         0.852264        -2.218383
 H        -0.248703         2.444997        -1.296718
 H         0.836966         2.528103        -3.672067
 H         3.418047         2.218229        -3.670057
 H         3.995751         0.454333        -2.449691
 H         4.076453         1.541179        -1.048020
 H         2.626686        -0.905086        -0.846642
