19
Iteration:  2582charge 0 multiplicity 1
 C         0.142203        -0.428203         0.060524
 C         1.047711         0.452780        -0.680079
 C         0.513538         1.174883        -1.977958
 C         1.447515         2.007273        -2.873775
 O         1.912231         3.174227        -2.208052
 C         2.817640         2.081783        -2.604277
 C         3.476439         1.007557        -1.643848
 C         2.520889         0.414127        -0.574558
 O         1.806442         1.389356         0.231444
 H         0.129731        -1.435267        -0.248738
 H         0.365991        -0.109101         1.174510
 H        -0.820395        -0.086271        -0.308529
 H        -0.211167         0.478335        -2.536409
 H        -0.125720         1.930297        -1.552274
 H         0.945201         2.374755        -3.719477
 H         3.436842         2.254372        -3.531531
 H         3.856863         0.268275        -2.324465
 H         4.479055         1.288219        -1.216344
 H         2.886154        -0.352584         0.030480
