19
Iteration:  3127
 C         0.251525        -0.689165        -0.352877
 C         1.009909         0.535342        -0.593147
 C         0.468599         1.620982        -1.578321
 C         1.289475         1.927629        -2.897871
 O         2.212151         3.047061        -2.689038
 C         2.758423         1.785054        -2.768641
 C         3.382739         1.434845        -1.391062
 C         2.532844         0.555883        -0.499400
 O         1.707028         1.139617         0.545374
 H        -0.223369        -1.051017        -1.279743
 H         0.955371        -1.494323        -0.139271
 H        -0.616983        -0.555651         0.472279
 H        -0.615825         1.445097        -1.731809
 H         0.622085         2.575479        -1.098297
 H         0.892036         1.849838        -3.931182
 H         3.248503         1.468608        -3.787842
 H         4.346725         0.893388        -1.660804
 H         3.424981         2.416349        -0.851982
 H         2.972535        -0.439780        -0.106348
