19
Iteration:   441
 C         0.091336        -0.612144        -0.064768
 C         1.000738         0.453090        -0.647722
 C         0.401734         1.612602        -1.492781
 C         1.196262         2.201347        -2.593860
 O         2.205302         3.228631        -2.246965
 C         2.716935         2.016792        -2.708740
 C         3.389826         0.974646        -1.906213
 C         2.501572         0.275059        -0.864508
 O         2.076051         1.181899         0.228029
 H        -0.079188        -0.218961         1.084149
 H        -0.934029        -0.684190        -0.604904
 H         0.475120        -1.611937        -0.140413
 H        -0.607400         1.254717        -1.824777
 H         0.197431         2.371734        -0.723729
 H         0.862094         2.402483        -3.617866
 H         3.141105         2.118530        -3.755767
 H         3.817571         0.195708        -2.537287
 H         4.173968         1.358235        -1.185438
 H         2.918634        -0.662403        -0.438122
