19
Iteration:  2074charge 0 multiplicity 1
 C         0.191312        -0.345225         0.188549
 C         0.980359         0.503892        -0.767386
 C         0.495104         1.139053        -2.052813
 C         1.374581         2.035754        -2.805554
 O         2.054376         3.175374        -2.217455
 C         2.816230         2.054606        -2.598390
 C         3.497550         1.126153        -1.588108
 C         2.530528         0.390191        -0.564790
 O         1.689210         1.262989         0.176838
 H        -0.306062        -1.265536        -0.236688
 H         0.821660        -0.759007         0.847023
 H        -0.620299         0.338881         0.578056
 H         0.358651         0.269314        -2.808361
 H        -0.525680         1.588051        -1.962576
 H         1.152865         2.138729        -3.970769
 H         3.454546         2.158100        -3.584718
 H         4.070073         0.502611        -2.285574
 H         4.248553         1.756645        -1.097621
 H         2.849323        -0.443478         0.047588
