19
Iteration:  4535charge 0 multiplicity 1
 C         0.068818        -0.679825        -0.357955
 C         1.035604         0.531706        -0.615941
 C         0.429946         1.638429        -1.554474
 C         1.328018         1.868626        -2.813471
 O         2.139809         3.071573        -2.665342
 C         2.805468         1.804437        -2.713045
 C         3.409427         1.492002        -1.380713
 C         2.537497         0.493209        -0.602490
 O         1.887194         1.112208         0.479821
 H         0.388187        -1.713021        -0.628494
 H         0.041327        -0.649534         0.719814
 H        -0.983123        -0.297336        -0.796733
 H        -0.540147         1.187746        -2.017056
 H         0.230722         2.581446        -1.182829
 H         0.891343         1.850989        -3.835562
 H         3.428724         1.455678        -3.624951
 H         4.412489         1.142057        -1.512999
 H         3.424790         2.363279        -0.718560
 H         2.938433        -0.505358        -0.368332
