19
Iteration:   935charge 0 multiplicity 1
 C         0.283977        -0.622722        -0.026051
 C         1.013483         0.577982        -0.730369
 C         0.251812         1.568013        -1.600990
 C         1.250143         2.347409        -2.532581
 O         2.366754         3.148569        -2.018298
 C         2.601496         1.926542        -2.826791
 C         3.322914         0.860705        -1.958567
 C         2.479943         0.396220        -0.834720
 O         2.004531         1.189101         0.237539
 H        -0.782646        -0.344316         0.233244
 H         0.204267        -1.536546        -0.673951
 H         0.822730        -0.815304         0.882550
 H        -0.442486         0.844743        -2.291640
 H        -0.380914         2.348784        -1.023748
 H         0.722116         2.839903        -3.343294
 H         2.846264         2.008106        -3.866613
 H         3.678516         0.000761        -2.533475
 H         4.212518         1.343410        -1.591309
 H         2.785087        -0.591011        -0.558274
