19
Iteration:  1042charge 0 multiplicity 1
 C         0.188780        -0.567891         0.000136
 C         1.018963         0.477339        -0.646734
 C         0.365363         1.638967        -1.449322
 C         1.186223         2.238361        -2.652440
 O         2.301894         3.242704        -2.358215
 C         2.657673         1.971817        -2.773023
 C         3.402162         1.104873        -1.747168
 C         2.434595         0.239383        -0.904918
 O         2.011339         0.978277         0.263312
 H        -0.140701        -0.103957         1.045385
 H        -0.854224        -0.699657        -0.520525
 H         0.647572        -1.493063         0.117004
 H        -0.391515         1.220284        -1.937756
 H        -0.131304         2.410391        -0.945982
 H         0.676000         2.453208        -3.567586
 H         3.239934         2.001514        -3.830057
 H         4.175834         0.508360        -2.300601
 H         3.876973         1.873348        -1.104391
 H         2.892671        -0.799996        -0.746422
