19
Iteration:  4798
 C         0.218737        -0.770630        -0.215912
 C         1.032824         0.548595        -0.686767
 C         0.366591         1.568840        -1.705521
 C         1.344619         1.964425        -2.824484
 O         2.131607         3.134584        -2.470217
 C         2.856616         1.904243        -2.689425
 C         3.451489         1.143559        -1.511150
 C         2.523983         0.540911        -0.534346
 O         1.694370         1.376033         0.367472
 H         0.225926        -1.734418        -0.771837
 H         0.835798        -1.196910         0.559558
 H        -0.871283        -0.752016         0.145284
 H        -0.663706         1.095899        -2.078940
 H         0.229583         2.339699        -1.020008
 H         0.972097         1.885236        -3.945892
 H         3.463991         1.835817        -3.697165
 H         3.844519         0.300230        -2.041811
 H         4.265248         1.645707        -0.971802
 H         2.975654        -0.228442         0.086282
