19
Iteration:   558charge 0 multiplicity 1
 C         0.347043        -0.621207         0.008690
 C         1.038545         0.648270        -0.658925
 C         0.399682         1.536764        -1.784229
 C         1.257966         2.379747        -2.634039
 O         2.298172         3.064142        -1.883379
 C         2.625278         1.991262        -2.739577
 C         3.186225         0.747798        -2.020041
 C         2.488039         0.342349        -0.807948
 O         1.956481         1.323514         0.222918
 H        -0.721208        -0.535320         0.059225
 H         0.515814        -1.564216        -0.462204
 H         0.909448        -0.733070         1.063420
 H        -0.540459         1.083039        -2.357679
 H        -0.462939         2.170255        -1.282197
 H         0.757963         2.897189        -3.452681
 H         3.209134         2.244719        -3.638696
 H         3.206397        -0.077054        -2.848875
 H         4.274568         0.871446        -1.856261
 H         2.711626        -0.704388        -0.398648
