19
Iteration:   424charge 0 multiplicity 1
 C         0.132581        -0.643582        -0.073586
 C         1.081284         0.497688        -0.670907
 C         0.392547         1.605994        -1.419482
 C         1.258941         2.210428        -2.545077
 O         2.287743         3.217160        -2.190009
 C         2.629570         1.889003        -2.833870
 C         3.386553         0.969267        -1.904242
 C         2.524548         0.367748        -0.800873
 O         1.908909         1.200648         0.172789
 H         0.064459        -0.638194         0.912634
 H        -0.856780        -0.535887        -0.496387
 H         0.472487        -1.643905        -0.425628
 H        -0.557073         1.400560        -1.881758
 H         0.160421         2.417554        -0.691347
 H         0.560488         2.592433        -3.317290
 H         3.031531         1.977480        -3.855457
 H         3.928510         0.196491        -2.493137
 H         4.274415         1.486576        -1.514678
 H         2.948911        -0.548648        -0.372421
