19
Iteration:  1303
 C         0.284795        -0.532785        -0.098905
 C         1.058742         0.578152        -0.678340
 C         0.369074         1.526909        -1.644576
 C         1.225203         2.183686        -2.691286
 O         2.247596         3.139958        -2.160659
 C         2.677788         1.875794        -2.748123
 C         3.361760         0.940496        -1.830300
 C         2.520722         0.409920        -0.655940
 O         1.863715         1.257417         0.253537
 H        -0.885913        -0.478726        -0.220600
 H         0.563955        -1.466235        -0.789889
 H         0.584796        -0.682406         0.942141
 H        -0.441311         0.918884        -2.182416
 H        -0.263145         2.242297        -1.088239
 H         0.818187         2.441871        -3.632115
 H         3.138241         1.985717        -3.695184
 H         3.723917         0.130452        -2.412090
 H         4.198539         1.472955        -1.389990
 H         2.847739        -0.556338        -0.229875
