19
Iteration:  1183charge 0 multiplicity 1
 C         0.153259        -0.448688         0.147239
 C         1.051307         0.545466        -0.696595
 C         0.304712         1.452123        -1.811043
 C         1.345162         2.163087        -2.669953
 O         2.091070         3.205063        -1.947976
 C         2.789498         2.056283        -2.635536
 C         3.337475         0.878416        -1.946116
 C         2.515048         0.266081        -0.808477
 O         2.025100         1.229429         0.097847
 H         0.542768        -1.513918         0.034842
 H         0.299106        -0.287973         1.269946
 H        -0.800646        -0.377854        -0.087483
 H        -0.378310         0.785391        -2.478671
 H        -0.453074         2.165673        -1.540108
 H         0.972811         2.530983        -3.561717
 H         3.282720         2.348898        -3.575067
 H         3.445976         0.085420        -2.730455
 H         4.363368         1.248812        -1.607430
 H         2.952502        -0.739089        -0.456757
