19
Iteration:  4906
 C         0.181934        -0.314361         0.076447
 C         1.084374         0.552677        -0.796428
 C         0.449462         1.091597        -2.120186
 C         1.416860         2.028202        -2.878168
 O         1.870058         3.068255        -1.923466
 C         2.821123         2.067738        -2.488875
 C         3.492340         0.958329        -1.669775
 C         2.499332         0.388123        -0.523079
 O         1.858979         1.481759         0.059565
 H        -0.087615        -1.301235        -0.486943
 H         0.805582        -0.447070         0.971932
 H        -0.826074         0.159424         0.412309
 H         0.243579         0.283521        -2.816300
 H        -0.689793         1.603329        -1.897196
 H         0.994244         2.346221        -3.980928
 H         3.513312         2.467077        -3.288839
 H         3.734327         0.146810        -2.521540
 H         4.484679         1.302134        -1.209579
 H         2.850206        -0.473838         0.059517
