19
Iteration:  1431charge 0 multiplicity 1
 C         0.087354        -0.431080        -0.118682
 C         1.170925         0.513563        -0.677151
 C         0.400758         1.296176        -1.838641
 C         1.247161         2.159242        -2.683143
 O         2.151066         3.132129        -2.178797
 C         2.648089         1.906963        -2.698085
 C         3.480277         1.009311        -1.809139
 C         2.647868         0.452956        -0.555907
 O         1.833705         1.333407         0.324744
 H         0.484378        -1.439497         0.098318
 H        -0.359068        -0.155673         0.767129
 H        -0.691965        -0.570818        -0.916476
 H        -0.053439         0.530935        -2.478814
 H        -0.347650         1.894212        -1.212566
 H         0.776467         2.460941        -3.705008
 H         2.957791         1.788283        -3.821445
 H         3.760579         0.075849        -2.414812
 H         4.427538         1.524277        -1.498307
 H         3.142320        -0.287785         0.037892
