19
Iteration:  3626
 C         0.155265        -0.571860         0.063825
 C         1.032628         0.546973        -0.632536
 C         0.560896         1.140463        -1.990465
 C         1.368085         2.150292        -2.825883
 O         2.114538         3.110360        -2.146393
 C         2.839565         1.996144        -2.674228
 C         3.385108         0.961691        -1.691302
 C         2.518719         0.534242        -0.540818
 O         1.660572         1.475568         0.169456
 H        -0.003229        -1.494035        -0.554600
 H         0.675316        -0.855574         0.916997
 H        -0.776968        -0.122200         0.370698
 H         0.410600         0.332328        -2.697350
 H        -0.574403         1.632754        -1.830232
 H         0.875246         2.563863        -3.763141
 H         3.593690         2.444319        -3.308164
 H         3.592914         0.057782        -2.319828
 H         4.394396         1.278897        -1.273608
 H         3.118310        -0.150723         0.201117
