19
Iteration:  1606charge 0 multiplicity 1
 C         0.269590        -0.609905        -0.036162
 C         0.992488         0.537140        -0.659508
 C         0.311169         1.427658        -1.716407
 C         1.329954         1.971801        -2.726044
 O         2.118380         3.136867        -2.294681
 C         2.824686         1.922201        -2.702779
 C         3.522326         1.118976        -1.614337
 C         2.494083         0.449476        -0.693411
 O         1.755313         1.363393         0.190544
 H        -0.788800        -0.237550         0.165059
 H         0.133051        -1.366695        -0.702252
 H         0.807666        -1.114487         0.798622
 H        -0.570514         0.969664        -2.242634
 H        -0.027822         2.301782        -1.276599
 H         0.860822         2.080981        -3.782732
 H         3.472857         2.148189        -3.626758
 H         4.123098         0.343046        -2.095870
 H         4.231357         1.675782        -1.003244
 H         2.881218        -0.461280        -0.173737
