19
Iteration:  1693charge 0 multiplicity 1
 C         0.101505        -0.540528         0.054070
 C         1.037247         0.513086        -0.655247
 C         0.434427         1.250454        -1.919283
 C         1.366155         2.048501        -2.803598
 O         2.035359         3.167500        -2.260659
 C         2.845210         2.038841        -2.662013
 C         3.459706         1.032945        -1.637439
 C         2.543931         0.489577        -0.609215
 O         1.797352         1.385332         0.240650
 H         0.673683        -0.890174         1.042385
 H        -0.886905        -0.198224         0.142935
 H         0.197900        -1.597852        -0.584877
 H        -0.093629         0.475622        -2.624072
 H        -0.336584         1.877976        -1.498634
 H         1.116181         1.999470        -3.877600
 H         3.321327         2.164209        -3.611704
 H         3.931625         0.229827        -2.199338
 H         4.248455         1.532578        -1.074570
 H         3.078461        -0.273544         0.011817
