19
Iteration:  3979charge 0 multiplicity 1
 C         0.219496        -0.417821         0.028730
 C         1.064017         0.538440        -0.758410
 C         0.428294         1.223594        -1.982343
 C         1.369161         1.936214        -2.835007
 O         1.963192         3.099664        -2.074057
 C         2.830521         2.028728        -2.555680
 C         3.499897         1.012945        -1.613507
 C         2.493191         0.429467        -0.609166
 O         1.770045         1.436567         0.101877
 H         0.128792        -1.357565        -0.386882
 H         0.587912        -0.432761         1.063702
 H        -0.828411        -0.089301        -0.065819
 H        -0.152975         0.364838        -2.590156
 H        -0.222324         1.977562        -1.708711
 H         1.032146         2.240990        -3.801275
 H         3.605112         2.334839        -3.323349
 H         3.937433         0.210629        -2.194802
 H         4.283592         1.543545        -1.047762
 H         3.071260        -0.240504         0.126336
