19
Iteration:  3966
 C         0.205915        -0.405682         0.009060
 C         1.020835         0.628346        -0.730600
 C         0.381952         1.110451        -1.975067
 C         1.410231         2.037655        -2.724815
 O         2.000532         3.048920        -2.027847
 C         2.843805         1.962660        -2.545803
 C         3.516092         1.008142        -1.619478
 C         2.528759         0.442992        -0.702211
 O         1.745315         1.522898         0.038620
 H         0.341271        -1.362799        -0.455371
 H         0.563504        -0.581736         1.102003
 H        -0.797734        -0.003620         0.220853
 H         0.198788         0.195493        -2.641062
 H        -0.617699         1.453258        -1.797112
 H         1.067856         2.255396        -3.735611
 H         3.335156         2.299615        -3.459110
 H         4.088577         0.279891        -2.210865
 H         4.274669         1.518736        -1.030073
 H         2.752092        -0.460049        -0.086371
