19
Iteration:  4790charge 0 multiplicity 1
 C         0.271449        -0.757305        -0.240057
 C         1.020693         0.536505        -0.670955
 C         0.455396         1.537065        -1.662163
 C         1.328395         1.952008        -2.797010
 O         2.135977         3.137778        -2.538916
 C         2.785240         1.905315        -2.677557
 C         3.476223         1.142256        -1.527348
 C         2.484433         0.551246        -0.471104
 O         1.654291         1.318797         0.351431
 H         0.374754        -1.607872        -0.891017
 H         0.790997        -1.024874         0.746050
 H        -0.813971        -0.441649        -0.109714
 H        -0.630489         1.464171        -2.098508
 H         0.302349         2.488971        -1.054643
 H         0.974243         1.970011        -3.768936
 H         3.471459         1.927550        -3.547738
 H         3.883276         0.281939        -2.048276
 H         4.276904         1.734114        -1.074827
 H         2.893770        -0.352249         0.009636
