19
Iteration:  2887
 C         0.157140        -0.444518         0.087933
 C         1.014435         0.547111        -0.669425
 C         0.447947         1.251362        -1.965606
 C         1.462130         1.968035        -2.908125
 O         1.949107         3.137240        -2.264368
 C         2.864893         2.116289        -2.682617
 C         3.430418         1.122481        -1.602217
 C         2.540378         0.420011        -0.631934
 O         1.798327         1.230894         0.323686
 H         0.030861        -1.319584        -0.457367
 H         0.688979        -0.542312         1.070703
 H        -0.904086        -0.210548         0.320311
 H         0.108993         0.417344        -2.475855
 H        -0.420820         1.935872        -1.833336
 H         0.883834         2.284938        -3.854269
 H         3.659854         2.469624        -3.411854
 H         3.994335         0.253927        -2.081778
 H         4.029198         1.673824        -0.969585
 H         2.993905        -0.473755        -0.180312
