19
Iteration:  3935
 C         0.143877        -0.458405         0.058426
 C         1.111099         0.500477        -0.689045
 C         0.505345         1.017659        -2.071328
 C         1.367180         2.161130        -2.773669
 O         2.141741         3.087255        -1.999099
 C         2.797180         1.989969        -2.720391
 C         3.332723         0.973292        -1.704358
 C         2.541736         0.574536        -0.513556
 O         1.677505         1.498667         0.149700
 H        -0.196279        -1.273837        -0.461362
 H         0.731423        -0.855162         0.916852
 H        -0.693361         0.143849         0.448117
 H         0.551822         0.130988        -2.907132
 H        -0.486459         1.318784        -2.006148
 H         0.941939         2.567740        -3.676798
 H         3.489875         2.123655        -3.594137
 H         3.783928         0.186475        -2.276889
 H         4.164882         1.618719        -1.351289
 H         3.045882        -0.282234         0.086115
