19
Iteration:  3659charge 0 multiplicity 1
 C         0.187121        -0.436376        -0.155079
 C         1.051574         0.571548        -0.739657
 C         0.353414         1.236148        -1.880058
 C         1.320975         1.978255        -2.701221
 O         2.089482         3.075882        -2.219575
 C         2.823700         1.834478        -2.612715
 C         3.474934         1.151598        -1.505461
 C         2.547924         0.510692        -0.635195
 O         1.795095         1.390241         0.169592
 H         0.055422        -1.371805        -0.735429
 H         0.502847        -0.603565         0.809870
 H        -0.798342         0.007361        -0.072754
 H        -0.303346         0.577973        -2.399034
 H        -0.371290         1.935329        -1.401383
 H         0.791312         2.044106        -3.676936
 H         3.501762         2.091526        -3.422106
 H         4.137835         0.390842        -1.964588
 H         4.139248         1.844226        -0.894656
 H         3.111861        -0.380229        -0.080664
