19
Iteration:  2003
 C         0.226163        -0.530218        -0.126678
 C         1.061499         0.611249        -0.697123
 C         0.475958         1.201976        -2.017650
 C         1.339501         2.004656        -2.860991
 O         2.048954         3.108906        -2.222762
 C         2.811783         1.985939        -2.692238
 C         3.366372         0.948037        -1.632111
 C         2.548662         0.585250        -0.378236
 O         1.761585         1.494534         0.367675
 H         0.182843        -1.420418        -0.723194
 H         0.841948        -1.019817         0.782934
 H        -0.766573        -0.195409         0.108265
 H         0.081841         0.304754        -2.594124
 H        -0.383036         1.759828        -1.646152
 H         0.948566         2.242161        -3.799436
 H         3.356325         2.152280        -3.539528
 H         3.571581        -0.011372        -2.150413
 H         4.361731         1.342322        -1.355289
 H         2.909676        -0.328130         0.078582
