19
Iteration:  3507charge 0 multiplicity 1
 C         0.182794        -0.594070        -0.072344
 C         1.032807         0.522523        -0.608268
 C         0.467262         1.412382        -1.867012
 C         1.337864         2.034418        -2.954902
 O         2.105128         3.226764        -2.546678
 C         2.797774         1.969596        -2.682715
 C         3.346756         1.183146        -1.447626
 C         2.515760         0.367128        -0.530608
 O         1.835206         1.210392         0.456772
 H         0.149864        -1.365297        -0.960326
 H         0.511166        -1.166177         0.785732
 H        -0.834420        -0.099808         0.198979
 H        -0.314078         0.725505        -2.354136
 H        -0.027528         2.250882        -1.454172
 H         0.885476         1.978473        -3.918171
 H         3.594504         2.196162        -3.379913
 H         3.966839         0.405867        -1.880801
 H         4.005179         1.963836        -0.979208
 H         2.882156        -0.475133        -0.047311
