19
Iteration:  4885charge 0 multiplicity 1
 C         0.106737        -0.360990         0.138067
 C         1.062969         0.517478        -0.750321
 C         0.513027         1.058262        -1.980935
 C         1.418664         1.974786        -2.741221
 O         1.934781         3.095110        -2.036830
 C         2.890147         2.147849        -2.474650
 C         3.489829         1.023255        -1.739849
 C         2.491510         0.429223        -0.682902
 O         1.755709         1.415796         0.055429
 H        -0.344726        -1.060114        -0.592343
 H         0.609583        -0.756187         1.016148
 H        -0.602745         0.496461         0.089256
 H         0.192709         0.274970        -2.578980
 H        -0.436428         1.638207        -1.962715
 H         1.066580         2.037346        -3.920437
 H         3.611649         2.583379        -3.254085
 H         3.787821         0.181414        -2.483817
 H         4.373455         1.368023        -1.124696
 H         3.049219        -0.265574        -0.085702
