19
Iteration:  2963
 C         0.278219        -0.492649         0.009929
 C         0.998499         0.534162        -0.742637
 C         0.387548         1.091233        -2.016779
 C         1.361946         2.034006        -2.792603
 O         2.089103         2.985523        -1.937477
 C         2.887714         1.976267        -2.752377
 C         3.476990         1.032239        -1.694675
 C         2.492262         0.624336        -0.593545
 O         1.685539         1.557873         0.183607
 H        -0.163712        -1.192573        -0.658625
 H         0.862698        -1.054620         0.810994
 H        -0.618217         0.030410         0.510107
 H         0.194648         0.164812        -2.662265
 H        -0.645166         1.693273        -1.774450
 H         0.948506         2.466043        -3.771615
 H         3.509678         2.487172        -3.564422
 H         3.645139        -0.017490        -2.197271
 H         4.395521         1.392113        -1.148735
 H         2.911176        -0.102895         0.128295
