19
Iteration:   721charge 0 multiplicity 1
 C         0.131956        -0.629295        -0.235539
 C         1.065565         0.516314        -0.609527
 C         0.426111         1.662198        -1.439176
 C         1.237066         2.317516        -2.505995
 O         2.265265         3.155893        -2.193545
 C         2.568712         1.821489        -2.811274
 C         3.390017         0.976987        -1.951648
 C         2.556024         0.430503        -0.819749
 O         1.970515         1.122466         0.301200
 H        -0.747097        -0.235642         0.097427
 H        -0.221947        -1.194586        -1.017079
 H         0.629458        -1.196342         0.660722
 H        -0.466112         1.172514        -1.894752
 H         0.128368         2.496565        -0.789418
 H         0.579162         2.622464        -3.367206
 H         2.889692         1.772226        -3.958620
 H         3.906036         0.145066        -2.403931
 H         4.192660         1.575632        -1.518284
 H         2.880382        -0.613200        -0.438533
