19
Iteration:   717
 C         0.089456        -0.602482        -0.202732
 C         1.063216         0.522041        -0.638421
 C         0.442575         1.636979        -1.430502
 C         1.228189         2.302924        -2.461392
 O         2.252208         3.161106        -2.226147
 C         2.579849         1.851768        -2.841785
 C         3.405864         0.996513        -1.925832
 C         2.585688         0.423642        -0.798900
 O         1.968093         1.087398         0.278566
 H        -0.820271        -0.084328         0.290223
 H        -0.245841        -1.259000        -1.085833
 H         0.522818        -1.178127         0.515641
 H        -0.472593         1.074312        -1.969587
 H         0.174448         2.406750        -0.691053
 H         0.684709         2.572486        -3.397121
 H         2.885082         1.840578        -3.863477
 H         3.841442         0.125852        -2.449304
 H         4.249820         1.614052        -1.499075
 H         2.965666        -0.519049        -0.477296
