19
Iteration:  2816
 C         0.333558        -0.785496        -0.291770
 C         0.981270         0.591984        -0.609279
 C         0.405022         1.481913        -1.676874
 C         1.336896         1.988996        -2.786628
 O         2.243802         3.094738        -2.507315
 C         2.750097         1.818626        -2.761312
 C         3.377154         1.166379        -1.585610
 C         2.520289         0.728939        -0.478884
 O         1.675447         1.308031         0.473764
 H        -0.069342        -1.250119        -1.256380
 H         0.910099        -1.391357         0.326838
 H        -0.622737        -0.641029         0.239813
 H        -0.424428         0.886232        -2.281138
 H        -0.123465         2.359325        -1.156917
 H         0.858911         2.091469        -3.688808
 H         3.318115         1.673508        -3.637311
 H         3.876766         0.284497        -1.919087
 H         4.184158         1.921005        -1.249451
 H         2.968501        -0.119927         0.058886
