19
Iteration:  3882charge 0 multiplicity 1
 C         0.189670        -0.584830        -0.069458
 C         1.029829         0.575258        -0.655749
 C         0.442813         1.275845        -1.907015
 C         1.339797         1.996988        -2.860105
 O         2.040739         3.099196        -2.252581
 C         2.808949         1.950141        -2.592139
 C         3.446879         1.054877        -1.494435
 C         2.490720         0.483592        -0.594658
 O         1.834640         1.472155         0.194938
 H        -0.193408        -1.178569        -0.880965
 H         0.841096        -1.178150         0.601598
 H        -0.734177        -0.236428         0.440333
 H        -0.062505         0.554581        -2.498598
 H        -0.242655         2.082359        -1.639267
 H         0.940984         2.257025        -3.821233
 H         3.488493         1.997130        -3.502957
 H         3.979352         0.357469        -2.152760
 H         4.216263         1.741688        -1.006748
 H         2.810784        -0.405919         0.079309
