19
Iteration:  1712
 C         0.224605        -0.404781         0.044129
 C         1.066935         0.523742        -0.790942
 C         0.363714         1.212564        -1.914029
 C         1.345132         1.980370        -2.825619
 O         2.023325         3.069271        -2.146564
 C         2.817155         1.949970        -2.615005
 C         3.511234         1.123494        -1.552019
 C         2.572895         0.423705        -0.620980
 O         1.741416         1.409638         0.125319
 H         0.880592        -1.020756         0.608181
 H        -0.490616         0.308115         0.500759
 H        -0.270723        -1.232506        -0.474394
 H        -0.291901         0.451141        -2.372597
 H        -0.378093         2.069152        -1.595385
 H         0.903682         2.356885        -3.676376
 H         3.470395         2.291229        -3.375572
 H         4.015959         0.357932        -2.194703
 H         4.269843         1.747901        -1.032052
 H         2.867936        -0.552049        -0.144518
