19
Iteration:  4429
 C         0.197397        -0.621265        -0.244908
 C         1.134234         0.616324        -0.705371
 C         0.381518         1.353646        -1.808358
 C         1.271216         2.003412        -2.823787
 O         2.161377         3.114482        -2.394164
 C         2.744761         1.833137        -2.655726
 C         3.487807         1.175230        -1.512801
 C         2.582295         0.520864        -0.499052
 O         1.695880         1.346322         0.384338
 H        -0.190570        -1.180285        -1.078854
 H         0.687334        -1.265532         0.477186
 H        -0.654854        -0.219819         0.354871
 H        -0.261271         0.696799        -2.333421
 H        -0.349389         2.263447        -1.539817
 H         0.833092         2.156221        -3.782643
 H         3.489967         1.957314        -3.467040
 H         4.101661         0.288445        -1.931083
 H         4.223199         1.879642        -0.989878
 H         2.850085        -0.373158         0.061268
