19
Iteration:  3363charge 0 multiplicity 1
 C         0.134506        -0.554420        -0.345393
 C         1.097126         0.589898        -0.611424
 C         0.502491         1.638476        -1.624949
 C         1.322330         1.870761        -2.867014
 O         2.215051         3.134918        -2.844901
 C         2.711100         1.786985        -2.746098
 C         3.238765         1.523049        -1.270730
 C         2.624537         0.352337        -0.521161
 O         1.819132         0.986814         0.562674
 H        -0.019318        -1.287667        -1.248945
 H         0.566032        -1.267707         0.550358
 H        -0.814520        -0.100796        -0.031167
 H        -0.595742         1.334041        -1.626049
 H         0.597275         2.656727        -1.106121
 H         0.720074         1.584097        -3.746211
 H         3.378470         1.580477        -3.602843
 H         4.325066         1.454331        -1.171621
 H         2.777221         2.367244        -0.695726
 H         2.992630        -0.616992        -0.363879
