19
Iteration:  1488charge 0 multiplicity 1
 C         0.312729        -0.521315         0.103637
 C         0.972874         0.548742        -0.751270
 C         0.313028         1.299520        -1.919336
 C         1.311579         2.152140        -2.740119
 O         2.098626         3.149436        -2.048747
 C         2.855436         1.995304        -2.625507
 C         3.468294         0.868481        -1.717417
 C         2.460513         0.420975        -0.699238
 O         1.799325         1.402400         0.081109
 H         0.396129        -1.615172        -0.272825
 H         0.911730        -0.290457         1.081019
 H        -0.629718        -0.276270         0.438769
 H        -0.180923         0.528103        -2.494972
 H        -0.566404         2.011491        -1.574507
 H         0.873531         2.636320        -3.671971
 H         3.461423         2.352747        -3.526751
 H         3.706886        -0.030028        -2.382293
 H         4.446806         1.137635        -1.247108
 H         2.912364        -0.296140        -0.065800
