19
Iteration:  4769charge 0 multiplicity 1
 C         0.252197        -0.618141        -0.322802
 C         1.126886         0.610981        -0.649465
 C         0.459840         1.543535        -1.633073
 C         1.312762         1.994657        -2.813786
 O         2.131213         3.169037        -2.623476
 C         2.774512         1.807346        -2.754112
 C         3.408970         1.196042        -1.469508
 C         2.524294         0.488867        -0.505966
 O         1.652642         1.202270         0.517366
 H         0.554650        -1.489373        -0.870950
 H         0.577014        -1.033969         0.683315
 H        -0.839872        -0.461713        -0.508478
 H        -0.475360         1.065387        -2.037832
 H         0.026419         2.360574        -0.965756
 H         0.931408         1.914307        -3.763202
 H         3.339074         1.601725        -3.655901
 H         4.082059         0.408187        -1.869909
 H         3.980611         1.937436        -0.894852
 H         3.000641        -0.370238        -0.024486
