19
Iteration:  1625charge 0 multiplicity 1
 C         0.272085        -0.621447        -0.133405
 C         1.045853         0.559924        -0.721819
 C         0.348583         1.422442        -1.704704
 C         1.283258         2.040970        -2.761863
 O         2.188809         3.007513        -2.246725
 C         2.761542         1.876535        -2.740237
 C         3.452266         1.113331        -1.614027
 C         2.529504         0.524109        -0.629849
 O         1.724314         1.434044         0.232494
 H        -0.393633        -0.310308         0.731675
 H        -0.334512        -1.204196        -0.945314
 H         1.133396        -1.411198         0.324013
 H        -0.407502         0.754695        -2.236805
 H        -0.159558         2.240282        -1.112697
 H         0.868309         2.298182        -3.693827
 H         3.232856         1.911814        -3.637055
 H         4.152759         0.314609        -1.876337
 H         4.041602         1.829384        -1.017760
 H         2.973509        -0.325967        -0.029268
