19
Iteration:  5000charge 0 multiplicity 1
 C         0.330116        -0.562955        -0.193226
 C         1.040578         0.652072        -0.699488
 C         0.307601         1.490720        -1.794854
 C         1.363639         1.975397        -2.843229
 O         2.134941         3.134223        -2.421269
 C         2.778143         1.805615        -2.595386
 C         3.505979         1.138100        -1.471842
 C         2.463683         0.467166        -0.559665
 O         1.684363         1.291847         0.350613
 H         0.196428        -1.318078        -1.028742
 H         1.050014        -1.109751         0.462882
 H        -0.682892        -0.559372         0.254114
 H        -0.484177         0.826435        -2.302888
 H        -0.226886         2.299354        -1.368163
 H         1.072751         2.026598        -3.849395
 H         3.376500         1.789418        -3.494032
 H         4.049499         0.373252        -1.983349
 H         4.202011         1.850835        -1.019709
 H         2.891522        -0.434362        -0.034551
