19
Iteration:  1926
 C         0.234414        -0.506006        -0.191495
 C         1.070106         0.540457        -0.687716
 C         0.430793         1.402023        -1.782248
 C         1.316499         1.914439        -2.876132
 O         2.068743         3.064317        -2.365605
 C         2.796134         1.854716        -2.744683
 C         3.491718         1.233269        -1.455167
 C         2.535939         0.396912        -0.555951
 O         1.738115         1.370905         0.344758
 H         0.185495        -1.428242        -0.769031
 H         0.518247        -0.672870         0.960467
 H        -0.826828        -0.218614        -0.077234
 H        -0.459039         0.739493        -2.227831
 H        -0.089400         2.227208        -1.274575
 H         0.869541         2.189673        -3.795462
 H         3.306815         1.954933        -3.635579
 H         4.363306         0.642093        -1.756116
 H         3.786345         2.157919        -0.927827
 H         2.964702        -0.439820        -0.034248
