19
Iteration:  2024
 C         0.171687        -0.420951        -0.078017
 C         1.076525         0.580929        -0.699545
 C         0.407614         1.154285        -1.946768
 C         1.331620         1.971208        -2.810328
 O         1.988661         3.054776        -2.087819
 C         2.835301         1.916261        -2.601597
 C         3.529623         1.014375        -1.596948
 C         2.594120         0.526119        -0.604875
 O         1.728367         1.540922         0.160228
 H        -0.157981        -1.170662        -0.802812
 H         0.619429        -1.111773         0.766516
 H        -0.704367         0.163055         0.196978
 H         0.155827         0.265279        -2.523735
 H        -0.537266         1.656447        -1.682917
 H         0.984125         2.194314        -3.753627
 H         3.478340         2.211746        -3.360064
 H         3.844051         0.214424        -2.299083
 H         4.454134         1.450202        -1.168851
 H         3.064080        -0.153392         0.142338
