19
Iteration:  1715charge 0 multiplicity 1
 C         0.233498        -0.360912         0.042630
 C         1.090025         0.535010        -0.801833
 C         0.352703         1.203136        -1.928689
 C         1.344696         1.979567        -2.800326
 O         2.020807         3.054380        -2.120958
 C         2.818925         1.947107        -2.626228
 C         3.490661         1.121862        -1.534958
 C         2.576745         0.418354        -0.637450
 O         1.731797         1.412364         0.117582
 H         0.986321        -1.084043         0.569175
 H        -0.376727         0.301473         0.558842
 H        -0.352831        -1.224947        -0.551784
 H        -0.359636         0.408048        -2.416769
 H        -0.294217         2.007333        -1.561189
 H         0.943685         2.303367        -3.757518
 H         3.416827         2.241280        -3.417140
 H         4.043789         0.390642        -2.133657
 H         4.209129         1.756749        -1.015742
 H         2.886859        -0.547553        -0.166899
