19
Iteration:  3407charge 0 multiplicity 1
 C         0.143892        -0.659783        -0.386415
 C         1.011799         0.576601        -0.578499
 C         0.387112         1.690222        -1.510677
 C         1.355304         1.771298        -2.770503
 O         2.152559         3.138936        -2.922984
 C         2.769823         1.930713        -2.639990
 C         3.557243         1.378157        -1.420486
 C         2.539899         0.563734        -0.478632
 O         1.710801         1.010684         0.553073
 H         0.150119        -1.270450        -1.387221
 H         0.735272        -1.291204         0.435551
 H        -0.889025        -0.384288        -0.083959
 H        -0.544129         1.272366        -1.921776
 H         0.373455         2.668690        -0.983380
 H         0.792390         1.760522        -3.683010
 H         3.298350         1.427684        -3.470330
 H         4.314202         0.739098        -1.883588
 H         3.981840         2.225411        -0.827348
 H         2.826909        -0.409328        -0.247172
