19
Iteration:  3912charge 0 multiplicity 1
 C         0.143270        -0.474904        -0.006018
 C         1.117224         0.512037        -0.686488
 C         0.525006         1.102420        -1.933050
 C         1.388445         2.055709        -2.754813
 O         2.082069         3.144023        -2.175506
 C         2.849385         2.064239        -2.668972
 C         3.492235         0.928946        -1.712331
 C         2.525892         0.605065        -0.531327
 O         1.581255         1.419046         0.236735
 H        -0.363790        -1.143033        -0.597621
 H         0.742012        -1.083942         0.748920
 H        -0.576346         0.172532         0.499491
 H         0.250623         0.204423        -2.753233
 H        -0.368803         1.624330        -1.774220
 H         0.804997         2.396056        -3.597594
 H         3.358535         2.296496        -3.640587
 H         3.456132         0.088077        -2.410729
 H         4.556748         1.179863        -1.539152
 H         3.061082        -0.108365         0.219776
