19
Iteration:  2848
 C         0.226362        -0.598910        -0.220279
 C         1.065887         0.552131        -0.695130
 C         0.373693         1.385590        -1.701846
 C         1.261338         2.001561        -2.713512
 O         2.124631         3.094775        -2.399657
 C         2.779590         1.847032        -2.661371
 C         3.463151         1.150130        -1.533684
 C         2.612510         0.520219        -0.483206
 O         1.740545         1.367748         0.191200
 H        -0.069361        -1.285833        -1.150234
 H         0.696248        -1.235357         0.456905
 H        -0.725893        -0.179902         0.197936
 H        -0.314341         0.611772        -2.338988
 H        -0.313291         2.155659        -1.217760
 H         0.814412         2.067994        -3.718756
 H         3.342541         1.863722        -3.617554
 H         4.321823         0.595553        -1.829344
 H         3.975303         2.069862        -0.942004
 H         3.075070        -0.206540         0.211855
