19
Iteration:  1543charge 0 multiplicity 1
 C         0.011435        -0.436636        -0.008487
 C         1.063120         0.511581        -0.649104
 C         0.475935         1.229484        -1.859267
 C         1.288955         2.103459        -2.673613
 O         2.055556         3.116559        -2.190730
 C         2.785381         1.940898        -2.738540
 C         3.490281         1.117157        -1.751807
 C         2.556915         0.435255        -0.679799
 O         1.928773         1.317820         0.342614
 H        -0.923580        -0.496474        -0.665207
 H         0.405605        -1.557356         0.101855
 H        -0.274087         0.016701         0.845671
 H         0.260958         0.446853        -2.573317
 H        -0.634340         1.691856        -1.760242
 H         0.845128         2.282532        -3.737363
 H         3.347810         2.446157        -3.660544
 H         3.883318         0.253653        -2.392263
 H         4.332293         1.746292        -1.357894
 H         2.984884        -0.444222        -0.278892
