19
Iteration:  3488charge 0 multiplicity 1
 C         0.212608        -0.611383        -0.243885
 C         1.050342         0.541756        -0.658442
 C         0.392345         1.486461        -1.682994
 C         1.338254         1.976130        -2.793212
 O         2.157869         3.186700        -2.631451
 C         2.783301         1.898684        -2.679543
 C         3.460149         1.227579        -1.471057
 C         2.553649         0.483431        -0.524515
 O         1.708770         1.210357         0.439572
 H         0.101117        -1.377034        -1.026625
 H         0.743326        -1.111869         0.540091
 H        -0.773144        -0.339689         0.255129
 H        -0.530785         0.913428        -2.122563
 H        -0.151207         2.232078        -1.148625
 H         0.972061         1.922455        -3.813520
 H         3.251810         1.660572        -3.653608
 H         4.202859         0.538257        -1.875697
 H         3.986759         1.871195        -0.781763
 H         2.879780        -0.539990        -0.052231
