19
Iteration:  2405charge 0 multiplicity 1
 C         0.088413        -0.555340         0.127887
 C         1.024458         0.431049        -0.721060
 C         0.413107         1.261244        -1.892153
 C         1.426430         2.027926        -2.832900
 O         2.090356         3.269059        -2.474241
 C         2.910956         2.025965        -2.694968
 C         3.389251         1.177014        -1.504082
 C         2.538396         0.410497        -0.543965
 O         1.779449         1.286053         0.318805
 H        -0.451542        -1.086920        -0.676083
 H         0.576573        -1.394525         0.817613
 H        -0.648385         0.135601         0.665204
 H        -0.004945         0.533935        -2.654036
 H        -0.428309         1.802100        -1.639009
 H         1.051984         2.075195        -3.854179
 H         3.448050         1.930756        -3.660054
 H         4.040327         0.457882        -1.985600
 H         3.998694         1.908514        -0.917154
 H         3.045543        -0.429200        -0.264090
