19
Iteration:  3301
 C         0.271655        -0.662446        -0.513341
 C         1.094429         0.575266        -0.648898
 C         0.639943         1.751186        -1.478536
 C         1.232907         1.847581        -2.799436
 O         2.101213         3.001897        -2.886979
 C         2.782717         1.749675        -2.696253
 C         3.312062         1.445113        -1.284857
 C         2.506080         0.510203        -0.459593
 O         1.672183         1.117313         0.545064
 H        -0.261518        -0.873221        -1.408881
 H         0.840203        -1.497278        -0.322109
 H        -0.406431        -0.545212         0.308534
 H        -0.479880         1.866594        -1.537027
 H         0.889607         2.574040        -0.917486
 H         0.756348         1.583942        -3.721836
 H         3.496560         1.603303        -3.518644
 H         4.311566         1.124018        -1.492523
 H         3.512203         2.323218        -0.658123
 H         2.918376        -0.528717        -0.088049
