19
Iteration:  2407charge 0 multiplicity 1
 C         0.085770        -0.548770         0.105508
 C         1.031600         0.426151        -0.727880
 C         0.408894         1.252870        -1.899703
 C         1.414164         2.019925        -2.839004
 O         2.107749         3.267728        -2.471853
 C         2.894666         2.023364        -2.692559
 C         3.373593         1.177839        -1.504717
 C         2.546389         0.432647        -0.542558
 O         1.785525         1.281132         0.326720
 H        -0.422841        -1.046439        -0.664246
 H         0.575403        -1.402308         0.796483
 H        -0.528913         0.161703         0.703471
 H        -0.021318         0.568972        -2.585831
 H        -0.480503         1.848059        -1.643878
 H         1.070645         2.021665        -3.811877
 H         3.386834         1.924803        -3.670482
 H         4.083579         0.474926        -1.943816
 H         3.965929         1.880457        -0.815046
 H         3.054830        -0.466804        -0.222989
