19
Iteration:  3418charge 0 multiplicity 1
 C         0.237852        -0.650231        -0.440752
 C         1.006047         0.616266        -0.602220
 C         0.413232         1.667405        -1.565722
 C         1.283157         1.931435        -2.770709
 O         2.124714         3.124331        -2.904529
 C         2.808729         1.833816        -2.677978
 C         3.474039         1.326817        -1.384871
 C         2.537351         0.508958        -0.468743
 O         1.737070         1.085372         0.636914
 H         0.112467        -1.183578        -1.468538
 H         0.722293        -1.433825         0.280506
 H        -0.786374        -0.521138        -0.019574
 H        -0.568107         1.298765        -1.901946
 H         0.030787         2.542204        -1.023645
 H         0.954363         1.455169        -3.690011
 H         3.313658         1.635198        -3.627430
 H         4.184519         0.545242        -1.678395
 H         4.139950         2.035923        -0.827213
 H         3.016420        -0.392855        -0.220826
