19
Iteration:  4622charge 0 multiplicity 1
 C         0.321047        -0.640376        -0.432097
 C         1.087008         0.568846        -0.694569
 C         0.393971         1.708357        -1.568072
 C         1.292167         1.989901        -2.782900
 O         2.199229         3.010830        -2.735450
 C         2.731726         1.693201        -2.679210
 C         3.399134         1.378815        -1.376603
 C         2.545154         0.531114        -0.473508
 O         1.691440         1.120958         0.539379
 H        -0.240343        -1.004961        -1.307448
 H         0.839206        -1.493847        -0.092734
 H        -0.413609        -0.563700         0.391603
 H        -0.724842         1.454766        -1.847302
 H         0.187133         2.577326        -1.043285
 H         0.743556         1.982808        -3.751795
 H         3.222205         1.368006        -3.662049
 H         4.349152         1.065114        -1.674514
 H         3.518911         2.308191        -0.861109
 H         3.063343        -0.420920        -0.320585
