19
Iteration:  4087charge 0 multiplicity 1
 C         0.256791        -0.712533        -0.238572
 C         1.025590         0.547451        -0.719130
 C         0.422363         1.585875        -1.594765
 C         1.362782         1.893081        -2.798637
 O         2.086469         3.130401        -2.624449
 C         2.873518         1.904826        -2.689709
 C         3.479793         1.217068        -1.477289
 C         2.490197         0.606762        -0.564375
 O         1.636038         1.230068         0.447494
 H        -0.039298        -1.291680        -1.104465
 H         0.987082        -1.425298         0.306345
 H        -0.659723        -0.481080         0.457166
 H        -0.571148         1.221959        -1.841002
 H         0.307066         2.571734        -0.999085
 H         0.961358         1.653178        -3.765448
 H         3.425218         1.668003        -3.615777
 H         4.150700         0.392995        -1.807452
 H         4.199166         1.949881        -1.086970
 H         2.775500        -0.384609        -0.116070
