19
Iteration:  3961
 C         0.178158        -0.396797         0.022723
 C         1.031432         0.610967        -0.716442
 C         0.384211         1.050951        -1.997731
 C         1.343371         2.063123        -2.710296
 O         2.045645         3.045995        -1.995492
 C         2.836626         1.973965        -2.591204
 C         3.537562         1.008328        -1.597475
 C         2.491213         0.461720        -0.692218
 O         1.766505         1.551225         0.037892
 H         0.349272        -1.422408        -0.512586
 H         0.657195        -0.603666         0.956201
 H        -0.846646        -0.082938         0.277931
 H         0.349063         0.259846        -2.726258
 H        -0.726956         1.434131        -1.904520
 H         1.014082         2.197419        -3.785278
 H         3.504327         2.168051        -3.461749
 H         4.047171         0.298678        -2.300472
 H         4.338318         1.551919        -1.033740
 H         2.719593        -0.463396        -0.179018
