19
Iteration:  3396charge 0 multiplicity 1
 C         0.104971        -0.665395        -0.333946
 C         1.037621         0.568877        -0.639522
 C         0.497669         1.638989        -1.494695
 C         1.308669         1.793712        -2.739882
 O         2.144953         3.116202        -2.865388
 C         2.822421         1.869503        -2.702452
 C         3.473962         1.490778        -1.363141
 C         2.538211         0.513046        -0.591345
 O         1.700271         1.024964         0.527115
 H        -0.049966        -1.405966        -1.211448
 H         0.385133        -1.255988         0.646553
 H        -0.918318        -0.290008        -0.128405
 H        -0.590159         1.629060        -1.704049
 H         0.622112         2.641374        -1.041383
 H         0.958940         1.522754        -3.729011
 H         3.388959         1.628040        -3.623566
 H         4.383057         0.920763        -1.581425
 H         3.901201         2.375911        -0.835703
 H         3.026435        -0.399509        -0.395350
