19
Iteration:    61
 C         0.150582        -0.622783        -0.195325
 C         1.081670         0.503759        -0.661394
 C         0.336770         1.575383        -1.454164
 C         1.175635         2.267838        -2.567080
 O         2.301290         3.236077        -2.284640
 C         2.673328         1.946044        -2.856134
 C         3.356208         0.910519        -1.908938
 C         2.570227         0.308229        -0.698457
 O         1.948277         1.205357         0.348224
 H         0.490827        -1.166120         0.770688
 H        -0.764066        -0.071707         0.169541
 H         0.008613        -1.472274        -0.924879
 H        -0.628358         1.230143        -1.913638
 H         0.171323         2.379767        -0.660341
 H         0.690574         2.647963        -3.502677
 H         2.952164         2.043104        -3.937728
 H         3.746604         0.057071        -2.527507
 H         4.296121         1.403043        -1.535643
 H         2.957697        -0.631499        -0.242287
