19
Iteration:  2927charge 0 multiplicity 1
 C         0.112290        -0.335296        -0.025375
 C         1.138784         0.459282        -0.751540
 C         0.457238         1.036502        -1.994185
 C         1.294162         2.049937        -2.734140
 O         1.952824         3.166099        -2.028814
 C         2.815182         1.992741        -2.626373
 C         3.480811         1.003781        -1.625445
 C         2.559190         0.453257        -0.544798
 O         1.833433         1.492414         0.068017
 H        -0.041614        -1.310061        -0.595550
 H         0.477526        -0.655621         1.045585
 H        -0.780076         0.250931         0.078587
 H         0.392316         0.184870        -2.832142
 H        -0.653479         1.298655        -1.831413
 H         0.809559         2.312604        -3.594588
 H         3.439060         2.292120        -3.388966
 H         3.865301         0.155307        -2.207168
 H         4.507697         1.427684        -1.183902
 H         3.143728        -0.256538         0.119780
