19
Iteration:  3331
 C         0.100424        -0.684630        -0.421411
 C         1.028696         0.623925        -0.600530
 C         0.438645         1.694032        -1.532286
 C         1.330769         1.932713        -2.706844
 O         2.183153         3.073677        -3.008006
 C         2.814112         1.718463        -2.721267
 C         3.443939         1.570593        -1.257887
 C         2.490297         0.613211        -0.521830
 O         1.814597         0.913642         0.600233
 H        -0.404827        -1.122407        -1.347674
 H         0.879809        -1.378126         0.180966
 H        -0.681822        -0.530155         0.310078
 H        -0.502571         1.135201        -2.058079
 H         0.066374         2.604972        -0.963820
 H         0.767943         1.481739        -3.552383
 H         3.318295         1.339384        -3.641898
 H         4.418720         1.124626        -1.378819
 H         3.636109         2.513856        -0.669967
 H         2.816496        -0.444490        -0.605491
