19
Iteration:  3178charge 0 multiplicity 1
 C         0.060771        -0.672973        -0.400111
 C         0.997814         0.528385        -0.572810
 C         0.507196         1.665216        -1.469226
 C         1.290795         1.828953        -2.780896
 O         2.132498         3.078010        -2.943373
 C         2.819719         1.863235        -2.677032
 C         3.494009         1.506678        -1.290391
 C         2.561304         0.536277        -0.559535
 O         1.773741         1.023694         0.535743
 H        -0.006598        -1.278021        -1.291792
 H         0.438885        -1.459197         0.358932
 H        -0.827319        -0.253949        -0.129972
 H        -0.485074         1.353388        -1.961095
 H         0.323507         2.615664        -0.901176
 H         0.713345         1.686136        -3.677451
 H         3.394095         1.794516        -3.617860
 H         4.336528         0.981107        -1.657114
 H         3.804980         2.474869        -0.749883
 H         3.065162        -0.472994        -0.245564
