19
Iteration:  1328
 C         0.062062        -0.550635        -0.234092
 C         1.092348         0.537931        -0.578659
 C         0.427191         1.494921        -1.611924
 C         1.193023         2.158907        -2.639634
 O         2.205381         3.062153        -2.264402
 C         2.688009         1.897970        -2.827817
 C         3.434338         1.055306        -1.810793
 C         2.590918         0.476873        -0.644922
 O         1.954925         1.251273         0.385647
 H        -0.765870        -0.057188         0.377466
 H        -0.487277        -1.011649        -1.150661
 H         0.497501        -1.302095         0.420125
 H        -0.222319         0.758791        -2.329349
 H        -0.386050         2.109132        -1.253387
 H         0.670843         2.421399        -3.525384
 H         3.093553         2.049839        -3.917644
 H         3.784198         0.138193        -2.319250
 H         4.309715         1.567960        -1.334726
 H         3.134489        -0.395082        -0.111276
