19
Iteration:  2575
 C         0.129535        -0.378226         0.007637
 C         1.095792         0.475603        -0.731730
 C         0.455240         1.213410        -1.947179
 C         1.393284         1.921032        -2.885895
 O         1.933332         3.195348        -2.163389
 C         2.806816         2.059108        -2.604794
 C         3.503770         1.031231        -1.644674
 C         2.547256         0.424893        -0.545904
 O         1.819662         1.357149         0.216674
 H         0.344250        -1.540265        -0.141251
 H         0.182218        -0.234486         1.076958
 H        -0.933346        -0.048136        -0.194450
 H        -0.216574         0.579533        -2.444824
 H        -0.230549         2.060510        -1.565037
 H         1.017124         2.058513        -3.938682
 H         3.444028         2.218747        -3.491925
 H         3.845875         0.189777        -2.306883
 H         4.341865         1.516149        -1.045899
 H         3.010891        -0.452448         0.042637
