19
Iteration:  1422charge 0 multiplicity 1
 C         0.146589        -0.458520        -0.111203
 C         1.115479         0.536091        -0.650163
 C         0.397263         1.318451        -1.778153
 C         1.232510         2.128979        -2.709130
 O         2.152575         3.156053        -2.189507
 C         2.703754         1.862320        -2.723725
 C         3.429597         1.040180        -1.718855
 C         2.631513         0.447251        -0.639863
 O         1.849223         1.287201         0.268706
 H         0.538158        -1.489060         0.217507
 H        -0.420322         0.157722         0.649479
 H        -0.621926        -0.689550        -0.781988
 H        -0.236166         0.770622        -2.406992
 H        -0.400253         1.979170        -1.277353
 H         0.796068         2.436408        -3.700670
 H         3.219556         1.960481        -3.669393
 H         3.775422         0.127604        -2.302884
 H         4.337957         1.566706        -1.348652
 H         3.144706        -0.259847        -0.055323
