19
Iteration:  3238charge 0 multiplicity 1
 C         0.223120        -0.685625        -0.464577
 C         1.009938         0.618147        -0.605710
 C         0.371198         1.745513        -1.501619
 C         1.329207         1.910774        -2.703835
 O         2.190622         3.034668        -2.980937
 C         2.746923         1.727954        -2.636134
 C         3.425355         1.519007        -1.291844
 C         2.504367         0.513537        -0.554187
 O         1.815994         1.006169         0.581984
 H         0.311405        -1.285012        -1.400859
 H         0.587067        -1.189173         0.407021
 H        -0.947039        -0.508820        -0.338213
 H        -0.581037         1.574756        -1.917202
 H         0.363176         2.675806        -0.948670
 H         0.843766         1.504714        -3.610228
 H         3.245823         1.326480        -3.521765
 H         4.540717         1.229724        -1.284804
 H         3.325569         2.464270        -0.738607
 H         2.922552        -0.499641        -0.563206
