19
Iteration:  2828charge 0 multiplicity 1
 C         0.226523        -0.767871        -0.278575
 C         1.113656         0.521200        -0.641015
 C         0.399428         1.414182        -1.695373
 C         1.256461         2.017556        -2.752450
 O         2.223787         3.124985        -2.449609
 C         2.754622         1.751523        -2.770320
 C         3.472667         1.216107        -1.551044
 C         2.514865         0.607374        -0.496089
 O         1.667017         1.451161         0.397507
 H         0.039483        -1.282651        -1.258736
 H         0.778745        -1.576551         0.210103
 H        -0.651506        -0.483945         0.272212
 H        -0.504434         0.844867        -2.120465
 H        -0.042070         2.368115        -1.192927
 H         0.771732         2.256614        -3.603936
 H         3.190443         1.654770        -3.697234
 H         4.086601         0.367053        -1.805995
 H         4.204215         1.937815        -1.085034
 H         3.050488        -0.268739        -0.052499
