19
Iteration:  1412
 C         0.162218        -0.509050        -0.069357
 C         1.059044         0.522038        -0.715475
 C         0.369808         1.388652        -1.707622
 C         1.297328         2.106606        -2.722597
 O         2.146471         3.127694        -2.231284
 C         2.756106         1.927045        -2.756761
 C         3.405093         1.047028        -1.682833
 C         2.527760         0.423805        -0.656750
 O         1.885087         1.283927         0.230133
 H         0.740208        -1.235486         0.598871
 H        -0.396971         0.040595         0.811061
 H        -0.468904        -0.903046        -0.800168
 H        -0.199253         0.665847        -2.236794
 H        -0.295006         2.164495        -1.244845
 H         0.707808         2.345975        -3.612128
 H         3.414064         2.226520        -3.490107
 H         3.995879         0.249975        -2.159170
 H         4.191001         1.649333        -1.183600
 H         2.917511        -0.515668        -0.318668
