19
Iteration:  4896charge 0 multiplicity 1
 C         0.144090        -0.295546         0.066850
 C         1.042672         0.545951        -0.776844
 C         0.453182         1.036791        -2.099308
 C         1.423873         1.982058        -2.770400
 O         1.865696         3.080741        -1.993293
 C         2.864485         2.108667        -2.433668
 C         3.496874         0.953220        -1.654333
 C         2.564516         0.451657        -0.688799
 O         1.822244         1.459785         0.055675
 H        -0.166660        -1.278327        -0.348272
 H         0.680648        -0.584032         0.984405
 H        -0.786887         0.224912         0.494210
 H         0.130351         0.213794        -2.666893
 H        -0.438680         1.683756        -1.780907
 H         1.126387         2.385734        -3.856416
 H         3.530763         2.589038        -3.210844
 H         3.642339         0.117301        -2.440570
 H         4.528514         1.116163        -1.228255
 H         2.900541        -0.356422        -0.052987
