19
Iteration:   604charge 0 multiplicity 1
 C         0.128550        -0.483139        -0.045517
 C         1.097353         0.460289        -0.678705
 C         0.394363         1.366304        -1.660639
 C         1.249057         2.348187        -2.547154
 O         2.302030         3.168639        -2.007571
 C         2.591787         1.957003        -2.734741
 C         3.333619         0.850135        -1.985992
 C         2.582233         0.348357        -0.790996
 O         1.979219         1.306822         0.182219
 H        -0.730588         0.097458         0.451489
 H        -0.446087        -0.977606        -0.825609
 H         0.615765        -1.244480         0.605911
 H        -0.400215         0.808486        -2.401966
 H        -0.377871         1.939726        -0.999417
 H         0.631973         2.897866        -3.236847
 H         2.948035         2.220068        -3.681793
 H         3.391445        -0.004118        -2.779189
 H         4.372334         1.116357        -1.745631
 H         3.026038        -0.475668        -0.235957
