19
Iteration:  3236charge 0 multiplicity 1
 C         0.214603        -0.699284        -0.451229
 C         1.033346         0.621671        -0.602422
 C         0.381198         1.757373        -1.510261
 C         1.309433         1.929795        -2.732746
 O         2.185987         3.020140        -2.972348
 C         2.771924         1.727073        -2.616300
 C         3.399194         1.512482        -1.284687
 C         2.506580         0.508823        -0.556642
 O         1.816034         1.005137         0.576198
 H         0.331165        -1.278021        -1.357912
 H         0.543356        -1.168827         0.417838
 H        -0.920568        -0.536420        -0.330381
 H        -0.639422         1.648975        -1.913727
 H         0.362420         2.635428        -0.978309
 H         0.847265         1.541753        -3.650312
 H         3.216395         1.354587        -3.584935
 H         4.506092         1.301234        -1.287478
 H         3.375329         2.514537        -0.734886
 H         2.989390        -0.575931        -0.584066
