19
Iteration:  3541
 C         0.134372        -0.390953        -0.028616
 C         1.088142         0.535197        -0.652877
 C         0.359375         1.204694        -1.894586
 C         1.355773         1.930096        -2.759639
 O         2.070027         3.115518        -2.236955
 C         2.817318         1.991272        -2.646498
 C         3.555036         1.189377        -1.580016
 C         2.553686         0.462785        -0.661778
 O         1.752556         1.298885         0.220705
 H        -0.231349        -1.216070        -0.769370
 H         0.404808        -0.783535         0.939525
 H        -0.936527         0.108408         0.057461
 H        -0.176825         0.439328        -2.602739
 H        -0.446103         1.792307        -1.659744
 H         1.070671         2.075175        -3.782826
 H         3.481443         2.305392        -3.453901
 H         4.139430         0.462154        -2.133600
 H         4.275257         1.669271        -0.881832
 H         2.930555        -0.402809        -0.150169
