19
Iteration:    25
 C         0.230149        -0.516529        -0.250640
 C         1.094031         0.769318        -0.594050
 C         0.287013         1.592102        -1.662622
 C         1.224547         2.199271        -2.733806
 O         2.109902         3.021466        -1.987050
 C         2.644932         1.913745        -2.750278
 C         3.335072         0.856473        -1.876529
 C         2.451712         0.350389        -0.771585
 O         2.220445         1.222283         0.340890
 H         0.808084        -1.163711         0.613352
 H        -0.784633        -0.267886         0.113843
 H         0.035033        -1.077944        -1.104690
 H        -0.513221         0.928290        -1.925512
 H        -0.268580         2.509736        -1.197522
 H         0.740899         2.640980        -3.617446
 H         3.126651         2.156471        -3.650748
 H         3.513351         0.020423        -2.511430
 H         4.342921         1.201197        -1.511644
 H         2.555872        -0.676367        -0.568810
