19
Iteration:  1855
 C         0.182256        -0.608375        -0.033881
 C         1.038664         0.490237        -0.733475
 C         0.401636         1.285467        -1.873722
 C         1.318451         2.006379        -2.870881
 O         2.163779         3.117756        -2.373081
 C         2.796389         1.896534        -2.666808
 C         3.503240         1.271325        -1.502182
 C         2.529424         0.509216        -0.512388
 O         1.699415         1.357364         0.246341
 H        -0.723011        -1.123185        -0.464045
 H         0.804764        -1.272892         0.445346
 H        -0.179396        -0.087676         0.904729
 H        -0.330101         0.650793        -2.231570
 H        -0.169316         2.110894        -1.337717
 H         1.049908         2.076021        -3.954131
 H         3.412398         1.883033        -3.670364
 H         4.162546         0.478238        -1.935902
 H         4.067163         2.020287        -0.907543
 H         2.887628        -0.395460         0.102377
