19
Iteration:  3554charge 0 multiplicity 1
 C         0.073496        -0.412002        -0.025216
 C         1.063590         0.477544        -0.778430
 C         0.393173         1.136927        -1.909835
 C         1.316178         2.002232        -2.806580
 O         2.069365         3.053453        -2.094844
 C         2.833187         1.990844        -2.588678
 C         3.525462         1.119151        -1.582024
 C         2.582908         0.490407        -0.610344
 O         1.798784         1.456409         0.100506
 H        -0.173615        -1.270529        -0.658737
 H         0.513600        -0.835955         0.916328
 H        -0.801285         0.269020         0.262601
 H        -0.110354         0.252485        -2.504874
 H        -0.372880         1.708159        -1.464033
 H         0.868566         2.332353        -3.765462
 H         3.358977         2.091249        -3.557249
 H         4.111887         0.334342        -2.077542
 H         4.219157         1.782774        -1.060269
 H         3.076191        -0.330996         0.042946
