19
Iteration:  1520charge 0 multiplicity 1
 C         0.162444        -0.423515         0.043683
 C         1.037943         0.503844        -0.750482
 C         0.383124         1.226474        -1.856177
 C         1.289575         2.026267        -2.775517
 O         2.148524         3.123579        -2.015985
 C         2.748447         2.005311        -2.637941
 C         3.460973         1.022821        -1.717882
 C         2.566066         0.394874        -0.684509
 O         1.822471         1.383314         0.077345
 H        -0.657629        -1.045279        -0.419212
 H         0.882634        -1.156535         0.508011
 H        -0.244832         0.182782         0.779129
 H        -0.267164         0.507819        -2.358091
 H        -0.362189         2.056930        -1.511736
 H         0.804559         2.553884        -3.688261
 H         3.323055         2.289140        -3.658764
 H         4.016474         0.263888        -2.345073
 H         4.173417         1.623236        -1.093396
 H         3.050779        -0.311603        -0.036925
