19
Iteration:   523
 C         0.078334        -0.469925         0.041024
 C         1.125543         0.497732        -0.709090
 C         0.327836         1.471562        -1.593893
 C         1.224750         2.261737        -2.496123
 O         2.253278         3.184181        -1.999871
 C         2.669529         1.996741        -2.713514
 C         3.432450         0.881761        -1.995363
 C         2.530327         0.235374        -0.935299
 O         1.972936         1.256659         0.103030
 H        -0.892708        -0.103612         0.016417
 H         0.097548        -1.479660        -0.395715
 H         0.336852        -0.499673         1.227452
 H        -0.244942         0.945108        -2.297893
 H        -0.142162         2.218322        -0.876549
 H         0.661162         2.710053        -3.324965
 H         3.053300         2.292997        -3.743098
 H         3.672592         0.084472        -2.778425
 H         4.365352         1.217626        -1.494821
 H         2.856723        -0.789817        -0.540987
