19
Iteration:  4649charge 0 multiplicity 1
 C         0.196978        -0.612570        -0.422412
 C         1.072474         0.575756        -0.619081
 C         0.433292         1.621886        -1.606384
 C         1.282385         1.881494        -2.794636
 O         2.153442         3.059846        -2.720877
 C         2.741884         1.774768        -2.681597
 C         3.464021         1.393913        -1.321194
 C         2.535581         0.514947        -0.536753
 O         1.778787         1.160416         0.521243
 H        -0.509323        -0.686856        -1.274186
 H         0.699528        -1.623829        -0.545838
 H        -0.448686        -0.744945         0.529052
 H        -0.471656         1.269722        -1.972506
 H         0.142146         2.633884        -1.098907
 H         0.778596         1.719009        -3.746207
 H         3.195474         1.472055        -3.614110
 H         4.480508         0.938877        -1.574765
 H         3.590922         2.330613        -0.702685
 H         2.946970        -0.490842        -0.409217
