19
Iteration:   693
 C         0.072817        -0.470349        -0.098939
 C         1.110603         0.417678        -0.643554
 C         0.352742         1.535579        -1.506392
 C         1.161850         2.230671        -2.634519
 O         2.241058         3.308245        -2.317562
 C         2.662276         2.043575        -2.759597
 C         3.377626         1.023793        -1.861858
 C         2.572255         0.226256        -0.795951
 O         2.054702         0.990713         0.336130
 H        -0.461795         0.359207         0.600541
 H        -0.681830        -0.850729        -0.894538
 H         0.356692        -1.295084         0.548645
 H        -0.517074         0.966891        -1.959441
 H         0.117501         2.361051        -0.783540
 H         0.673938         2.607838        -3.531597
 H         3.106873         1.960739        -3.675395
 H         3.908329         0.317248        -2.571592
 H         4.151900         1.569562        -1.273124
 H         2.941892        -0.724320        -0.534652
