19
Iteration:   578
 C         0.275649        -0.537180        -0.060443
 C         1.008677         0.612448        -0.613741
 C         0.321694         1.446571        -1.677691
 C         1.294221         2.334271        -2.566775
 O         2.313065         3.101727        -1.928945
 C         2.697321         1.986371        -2.814354
 C         3.196815         0.746367        -2.074523
 C         2.490033         0.417802        -0.791112
 O         1.974038         1.319666         0.260571
 H        -0.752904        -0.458284         0.174038
 H         0.324626        -1.303495        -0.876214
 H         1.002825        -1.037180         0.835714
 H         0.008531         0.713826        -2.433754
 H        -0.669251         1.907756        -1.361251
 H         0.685770         2.929730        -3.263404
 H         3.210023         2.440822        -3.730479
 H         3.056542        -0.144190        -2.748348
 H         4.270021         0.795467        -1.809436
 H         2.904578        -0.508906        -0.281901
