19
Iteration:  1252charge 0 multiplicity 1
 C         0.165816        -0.473076         0.123300
 C         1.073622         0.523547        -0.675410
 C         0.377080         1.386775        -1.759924
 C         1.266660         2.168341        -2.609898
 O         2.213733         3.159915        -2.044105
 C         2.762713         2.036423        -2.718380
 C         3.366207         0.976982        -1.896843
 C         2.496307         0.309300        -0.838807
 O         1.895763         1.253275         0.142642
 H        -0.600885        -0.887456        -0.502298
 H         0.691512        -1.259614         0.630585
 H        -0.195761         0.168423         0.855463
 H        -0.225453         0.718077        -2.413104
 H        -0.435635         1.992129        -1.397237
 H         0.709332         2.713439        -3.381410
 H         3.343836         2.229372        -3.729770
 H         3.558335         0.184500        -2.715381
 H         4.394217         1.156931        -1.441081
 H         2.951338        -0.616321        -0.354320
