19
Iteration:   859charge 0 multiplicity 1
 C         0.202531        -0.316625         0.184013
 C         1.020711         0.567848        -0.722719
 C         0.369130         1.373502        -1.833214
 C         1.302257         2.222430        -2.702179
 O         2.001094         3.206861        -1.844370
 C         2.732858         2.177318        -2.624701
 C         3.363505         0.776471        -2.020638
 C         2.483794         0.154929        -0.909470
 O         2.125621         1.139313         0.139102
 H        -0.148399         0.311555         1.079255
 H        -0.833637        -0.595576        -0.256245
 H         0.835132        -1.194730         0.363319
 H        -0.230656         0.704835        -2.381353
 H        -0.199826         2.252906        -1.450684
 H         0.740432         2.495432        -3.618687
 H         3.381923         2.638510        -3.246606
 H         3.541640         0.164520        -2.935750
 H         4.344406         1.083734        -1.601567
 H         2.887124        -0.726597        -0.500372
