19
Iteration:   322
 C         0.178128        -0.341994         0.130826
 C         0.996324         0.434830        -0.817634
 C         0.358259         1.424845        -1.701868
 C         1.209143         2.265241        -2.658449
 O         2.154049         3.117846        -1.969649
 C         2.743618         2.003463        -2.725470
 C         3.433561         0.967293        -1.851435
 C         2.518543         0.255329        -0.907519
 O         2.002404         1.145427         0.107104
 H         0.709317        -1.193889         0.593058
 H         0.036407         0.353569         1.000697
 H        -0.755508        -0.536694        -0.150553
 H        -0.236531         0.795697        -2.302660
 H        -0.345298         2.079075        -1.151281
 H         0.610353         2.840268        -3.513710
 H         3.321535         2.432990        -3.671853
 H         3.974757         0.212593        -2.431005
 H         4.192177         1.534320        -1.177016
 H         2.782263        -0.700573        -0.408017
