19
Iteration:  1439
 C         0.051006        -0.455836        -0.123560
 C         1.150452         0.501451        -0.711517
 C         0.439611         1.271296        -1.815655
 C         1.219636         2.175524        -2.665617
 O         2.159270         3.117167        -2.169857
 C         2.663071         1.931018        -2.745636
 C         3.472327         0.945987        -1.848560
 C         2.646630         0.497396        -0.486154
 O         1.845056         1.391134         0.350101
 H         0.493703        -1.396580        -0.001436
 H        -0.235124        -0.289925         0.898594
 H        -0.800441        -0.453010        -0.964250
 H         0.139739         0.342483        -2.476018
 H        -0.471097         1.703891        -1.433153
 H         0.711153         2.481125        -3.584528
 H         3.140089         2.192691        -3.797223
 H         3.801726         0.099149        -2.439940
 H         4.431221         1.440647        -1.657474
 H         3.048624        -0.498399        -0.042965
