19
Iteration:  3225
 C         0.214297        -0.701345        -0.378016
 C         1.062687         0.601341        -0.619797
 C         0.487646         1.818325        -1.546768
 C         1.227062         1.965188        -2.885300
 O         2.173349         2.990092        -2.893469
 C         2.808780         1.760046        -2.659920
 C         3.290021         1.543189        -1.237074
 C         2.553879         0.455802        -0.576428
 O         1.795343         0.989844         0.561770
 H         0.420466        -1.430168        -1.158371
 H         0.485708        -1.231376         0.482956
 H        -0.921506        -0.456192        -0.338853
 H        -0.579094         1.536736        -1.602197
 H         0.564698         2.667866        -0.978218
 H         0.790124         1.728088        -3.863298
 H         3.438334         1.224140        -3.472358
 H         4.365506         1.187446        -1.369263
 H         3.225459         2.523032        -0.654763
 H         3.016014        -0.600832        -0.297139
