19
Iteration:  4751
 C         0.151199        -0.647214        -0.343626
 C         1.001259         0.590373        -0.592760
 C         0.357241         1.557064        -1.689868
 C         1.274931         1.989756        -2.816910
 O         2.212123         3.098021        -2.660469
 C         2.781090         1.791310        -2.700969
 C         3.471878         1.342028        -1.447965
 C         2.507470         0.533157        -0.466217
 O         1.864533         1.159973         0.549490
 H         0.365193        -1.530251        -1.082075
 H         0.298062        -1.299742         0.568145
 H        -0.866003        -0.477187        -0.583123
 H        -0.337580         0.870676        -2.122596
 H        -0.127730         2.432496        -1.235030
 H         0.590696         2.030689        -3.778161
 H         3.248191         1.566946        -3.655669
 H         4.371675         0.711390        -1.759958
 H         3.813203         2.315340        -1.027653
 H         2.919541        -0.476436        -0.231844
