19
Iteration:  1043charge 0 multiplicity 1
 C         0.187719        -0.571336         0.004875
 C         1.021865         0.477330        -0.646098
 C         0.382938         1.635089        -1.449171
 C         1.187182         2.233711        -2.646265
 O         2.297164         3.252267        -2.358485
 C         2.658868         1.969243        -2.770127
 C         3.405239         1.102361        -1.750896
 C         2.429279         0.244204        -0.903279
 O         2.002326         0.980548         0.255800
 H        -0.142612        -0.125136         1.049595
 H        -0.858989        -0.693824        -0.485382
 H         0.661260        -1.499423         0.074436
 H        -0.395852         1.209341        -1.935095
 H        -0.107450         2.454283        -0.951048
 H         0.687014         2.422868        -3.584276
 H         3.236604         2.001277        -3.807760
 H         4.147368         0.492193        -2.291159
 H         3.885869         1.841651        -1.116020
 H         2.865824        -0.774701        -0.769733
