19
Iteration:  3702charge 0 multiplicity 1
 C         0.179452        -0.572014        -0.112493
 C         1.057348         0.507167        -0.691391
 C         0.458629         1.423472        -1.737924
 C         1.433203         1.987997        -2.859966
 O         2.106468         3.162676        -2.570467
 C         2.832593         1.955053        -2.675701
 C         3.350348         1.234580        -1.499194
 C         2.462791         0.512931        -0.535624
 O         1.746250         1.184130         0.458562
 H        -0.056791        -1.335640        -0.881291
 H         0.729217        -0.999302         0.644969
 H        -0.740228        -0.173769         0.240395
 H        -0.324741         0.802504        -2.253466
 H        -0.114386         2.116452        -1.301372
 H         1.034607         2.015084        -3.911616
 H         3.475889         1.869816        -3.560443
 H         3.917152         0.431799        -2.024744
 H         4.162700         1.788761        -0.973412
 H         3.014159        -0.503039        -0.229053
