19
Iteration:  2741charge 0 multiplicity 1
 C         0.069632        -0.515249        -0.165729
 C         1.072253         0.527633        -0.630342
 C         0.463918         1.361264        -1.649435
 C         1.347030         1.955029        -2.835442
 O         2.086931         3.105845        -2.471157
 C         2.773817         1.843938        -2.719109
 C         3.553205         1.367289        -1.492495
 C         2.543031         0.480311        -0.657971
 O         1.765227         1.193908         0.360434
 H         0.106958        -1.401710        -0.910009
 H         0.169775        -0.936062         0.881291
 H        -0.950780        -0.105731        -0.178232
 H        -0.292327         0.812618        -2.059557
 H        -0.171511         2.213738        -1.220171
 H         0.987684         1.798473        -3.835273
 H         3.324006         1.792365        -3.568839
 H         4.575438         0.993174        -1.778803
 H         3.679399         2.306190        -0.943379
 H         3.099638        -0.368324        -0.200264
