19
Iteration:  1851
 C         0.185814        -0.594432        -0.036136
 C         1.045376         0.527612        -0.753365
 C         0.353277         1.290754        -1.861488
 C         1.326098         1.993052        -2.838038
 O         2.180117         3.075768        -2.339424
 C         2.806352         1.903128        -2.679801
 C         3.525119         1.252502        -1.505411
 C         2.533768         0.503433        -0.529835
 O         1.677152         1.377308         0.226461
 H        -0.655958        -1.069733        -0.411247
 H         0.920883        -1.359304         0.493006
 H        -0.203433        -0.186795         0.844691
 H        -0.456949         0.567512        -2.179572
 H        -0.230541         2.029482        -1.395227
 H         1.091954         2.074129        -3.988749
 H         3.373783         1.997190        -3.644012
 H         4.254676         0.555979        -1.883154
 H         4.000204         2.090090        -0.985688
 H         2.913566        -0.309671         0.010391
