19
Iteration:  4468charge 0 multiplicity 1
 C         0.225090        -0.777955        -0.364253
 C         0.973285         0.610484        -0.584456
 C         0.386755         1.608183        -1.669799
 C         1.291551         1.908928        -2.833261
 O         2.150645         3.079036        -2.539165
 C         2.798567         1.842069        -2.691029
 C         3.485136         1.238612        -1.431746
 C         2.543936         0.530528        -0.527472
 O         1.772383         1.318639         0.436842
 H         0.447062        -1.651838        -1.045075
 H         0.223647        -1.059232         0.709782
 H        -0.887471        -0.487967        -0.563401
 H        -0.589289         1.145301        -2.072799
 H         0.266481         2.377729        -1.046114
 H         0.794140         2.010992        -3.848099
 H         3.248709         1.722973        -3.722467
 H         4.189373         0.526388        -1.739510
 H         4.099740         2.044749        -1.089991
 H         3.023798        -0.371300        -0.106929
