19
Iteration:  2874
 C         0.184743        -0.507006        -0.013801
 C         1.021892         0.558467        -0.716782
 C         0.426428         1.243429        -1.922385
 C         1.318527         1.998581        -2.886102
 O         2.013232         3.121668        -2.303263
 C         2.870378         2.015601        -2.626982
 C         3.492542         1.169856        -1.574779
 C         2.457237         0.443707        -0.615352
 O         1.826123         1.296554         0.349640
 H         0.047101        -1.435482        -0.517586
 H         0.717277        -0.844873         0.986067
 H        -0.716343         0.027398         0.217241
 H        -0.242078         0.568587        -2.478491
 H        -0.283784         2.056312        -1.423798
 H         1.096101         2.024551        -3.910534
 H         3.435359         2.220639        -3.492649
 H         4.279710         0.544466        -2.101587
 H         4.170500         1.759926        -0.965980
 H         2.837047        -0.534509        -0.168957
