19
Iteration:  2679charge 0 multiplicity 1
 C         0.243662        -0.586857        -0.059642
 C         0.976698         0.552883        -0.701823
 C         0.399700         1.280560        -1.825515
 C         1.388485         1.950599        -2.770733
 O         2.051014         3.131251        -2.310103
 C         2.908625         2.001716        -2.640316
 C         3.466067         1.070773        -1.593568
 C         2.501893         0.534090        -0.578780
 O         1.712535         1.420207         0.224768
 H        -0.404219        -0.996692        -0.717656
 H         0.874108        -1.345584         0.536527
 H        -0.415005        -0.040549         0.582725
 H        -0.004459         0.366665        -2.403963
 H        -0.338377         1.963967        -1.478867
 H         0.897169         2.040614        -3.816764
 H         3.540432         2.190209        -3.588161
 H         3.893321         0.204666        -2.198449
 H         4.293866         1.480424        -1.046244
 H         2.856271        -0.175142         0.151193
