19
Iteration:  4406charge 0 multiplicity 1
 C         0.215999        -0.618486         0.025730
 C         1.026845         0.496236        -0.716235
 C         0.438855         1.255254        -1.926714
 C         1.398603         2.079351        -2.808658
 O         2.124055         3.233156        -2.370055
 C         2.855225         1.977420        -2.675672
 C         3.410928         1.123510        -1.545399
 C         2.459947         0.458057        -0.544171
 O         1.701667         1.322918         0.273458
 H        -0.373076        -1.183382        -0.660089
 H         0.894619        -1.202731         0.560029
 H        -0.385933        -0.134032         0.872616
 H        -0.142301         0.771890        -2.661474
 H        -0.444806         2.054787        -1.567104
 H         1.051658         2.159214        -3.826172
 H         3.548121         2.028295        -3.573775
 H         3.887146         0.143920        -1.929679
 H         4.229531         1.654479        -0.907430
 H         2.879360        -0.290798         0.139358
