19
Iteration:  1799
 C         0.275751        -0.508396        -0.028767
 C         1.087853         0.512505        -0.616690
 C         0.424685         1.145802        -2.008445
 C         1.324550         2.048486        -2.874361
 O         2.068082         3.137693        -2.229034
 C         2.798011         1.999975        -2.628939
 C         3.432623         0.973850        -1.643231
 C         2.536982         0.551446        -0.429148
 O         1.706785         1.483924         0.241561
 H         0.030939        -1.246697        -0.808290
 H         0.653493        -1.127865         0.827090
 H        -0.744348        -0.114194         0.213795
 H         0.047830         0.354119        -2.553355
 H        -0.508569         1.761532        -1.777914
 H         0.913067         2.403561        -3.891052
 H         3.526379         2.168321        -3.580329
 H         3.599859         0.083069        -2.307106
 H         4.444991         1.315118        -1.275192
 H         3.105520        -0.067626         0.324775
