19
Iteration:  2574
 C         0.125705        -0.376416        -0.000501
 C         1.101405         0.483696        -0.740032
 C         0.448548         1.218689        -1.940679
 C         1.380206         1.914465        -2.887081
 O         1.938157         3.193417        -2.161224
 C         2.808970         2.053968        -2.601603
 C         3.502332         1.033911        -1.643997
 C         2.554440         0.424530        -0.544256
 O         1.820760         1.353824         0.214436
 H         0.351097        -1.524429        -0.130252
 H         0.174396        -0.248891         1.111318
 H        -0.944086        -0.063695        -0.186148
 H        -0.211206         0.574685        -2.447870
 H        -0.235656         2.061013        -1.561549
 H         1.047554         2.017364        -3.932167
 H         3.460194         2.241025        -3.495709
 H         3.840835         0.198163        -2.288436
 H         4.332823         1.546977        -1.034781
 H         3.016019        -0.439896         0.024230
