19
Iteration:   230charge 0 multiplicity 1
 C         0.229718        -0.558637        -0.048681
 C         1.039588         0.530605        -0.693507
 C         0.322821         1.506520        -1.627582
 C         1.237328         2.306834        -2.528350
 O         2.270377         3.098137        -1.977160
 C         2.690487         1.882053        -2.782414
 C         3.356784         0.841037        -2.002173
 C         2.466524         0.359929        -0.819231
 O         1.969372         1.341172         0.179463
 H         0.592620        -0.771220         0.969030
 H        -0.800287        -0.293433        -0.005449
 H         0.275259        -1.489192        -0.672358
 H        -0.437705         1.139408        -2.326681
 H        -0.153589         2.174590        -0.965736
 H         0.669803         2.812345        -3.232604
 H         3.090711         2.270339        -3.654326
 H         3.621548         0.053860        -2.751553
 H         4.320764         1.246548        -1.694137
 H         2.912155        -0.443991        -0.260706
