19
Iteration:   919
 C         0.189843        -0.541999        -0.022308
 C         1.026041         0.568700        -0.618414
 C         0.352033         1.474430        -1.672915
 C         1.185664         2.413925        -2.443012
 O         2.350553         3.031191        -2.010822
 C         2.577075         1.915683        -2.799065
 C         3.342644         0.951178        -2.007595
 C         2.485577         0.346994        -0.885921
 O         2.015519         1.235436         0.196979
 H        -0.624735        -0.171982         0.552415
 H        -0.069431        -1.286681        -0.773515
 H         0.735849        -1.109724         0.796456
 H         0.013229         0.896752        -2.463800
 H        -0.556372         1.820609        -1.306092
 H         0.684797         2.969622        -3.257181
 H         3.169747         2.219412        -3.782783
 H         3.656692         0.129457        -2.690579
 H         4.285429         1.442584        -1.619425
 H         2.987939        -0.574732        -0.421818
