19
Iteration:  3046charge 0 multiplicity 1
 C         0.117739        -0.512831        -0.248357
 C         1.075227         0.607868        -0.632780
 C         0.389452         1.421828        -1.733789
 C         1.339054         1.855781        -2.807697
 O         2.072314         3.008981        -2.445985
 C         2.844800         1.874025        -2.791409
 C         3.491819         1.346596        -1.481894
 C         2.543478         0.502396        -0.615307
 O         1.774832         1.203343         0.487619
 H         0.290953        -1.235858        -1.108017
 H         0.352669        -1.006222         0.761246
 H        -0.898918        -0.299197        -0.268137
 H        -0.515426         0.986863        -2.093002
 H         0.116440         2.354197        -1.391808
 H         0.828849         2.107777        -3.723805
 H         3.483779         2.028666        -3.599739
 H         4.414915         0.882466        -1.692186
 H         3.808264         2.252828        -0.911533
 H         2.980311        -0.478039        -0.289663
