19
Iteration:   912charge 0 multiplicity 1
 C         0.189973        -0.496890         0.008137
 C         1.049817         0.567238        -0.635388
 C         0.366733         1.383784        -1.667333
 C         1.210509         2.416796        -2.479485
 O         2.328507         3.072737        -1.956157
 C         2.595110         1.980449        -2.848911
 C         3.328288         0.904458        -1.997901
 C         2.515820         0.303831        -0.847761
 O         2.007702         1.243184         0.169533
 H        -0.715045        -0.045656         0.567956
 H        -0.283376        -1.004977        -0.903226
 H         0.675609        -1.155956         0.647291
 H         0.006585         0.486866        -2.418158
 H        -0.585339         1.935747        -1.262201
 H         0.624887         3.037068        -3.130315
 H         2.982615         2.127888        -3.865918
 H         3.709117         0.165715        -2.710978
 H         4.209236         1.410023        -1.667694
 H         2.972586        -0.578734        -0.423811
