19
Iteration:  4122charge 0 multiplicity 1
 C         0.166695        -0.563051        -0.330762
 C         1.131572         0.573116        -0.580688
 C         0.513926         1.458295        -1.617899
 C         1.312699         1.945553        -2.901947
 O         2.055423         3.178411        -2.743867
 C         2.791494         1.893383        -2.690367
 C         3.403425         1.286456        -1.417307
 C         2.540624         0.452979        -0.477637
 O         1.777099         1.159635         0.562379
 H         0.043073        -1.087405        -1.261105
 H         0.438540        -1.282743         0.429536
 H        -0.937165        -0.190730        -0.101241
 H        -0.382821         0.816741        -2.060458
 H         0.013443         2.281740        -1.146759
 H         0.843387         1.728198        -3.848646
 H         3.448141         1.795642        -3.631718
 H         4.222909         0.737749        -1.832564
 H         3.743536         2.016071        -0.629673
 H         2.959496        -0.634310        -0.203087
