19
Iteration:  2649charge 0 multiplicity 1
 C         0.244419        -0.562201        -0.023986
 C         1.081821         0.567412        -0.731428
 C         0.435997         1.222800        -1.985160
 C         1.346380         2.055244        -2.783569
 O         2.129775         2.984186        -2.007523
 C         2.720797         1.865900        -2.693056
 C         3.490937         1.067267        -1.696299
 C         2.545941         0.612374        -0.480049
 O         1.661585         1.511620         0.076618
 H        -0.436586        -1.106221        -0.723490
 H         0.791438        -1.251987         0.662475
 H        -0.453094         0.000551         0.645086
 H        -0.138075         0.353357        -2.599761
 H        -0.444914         1.818933        -1.593863
 H         0.815038         2.458463        -3.616047
 H         3.420445         2.031808        -3.587268
 H         4.000117         0.184116        -2.036007
 H         4.353136         1.678130        -1.247404
 H         3.068633         0.106527         0.324604
