19
Iteration:  2188charge 0 multiplicity 1
 C         0.204461        -0.673042        -0.076818
 C         1.007474         0.612482        -0.627106
 C         0.405480         1.369813        -1.774563
 C         1.302374         2.060639        -2.787598
 O         2.227011         3.179061        -2.533541
 C         2.901453         1.990196        -2.671578
 C         3.385242         1.148685        -1.555688
 C         2.489156         0.432884        -0.591423
 O         1.683816         1.310394         0.356909
 H         0.282647        -1.592076        -0.551001
 H         0.890868        -0.803419         0.777213
 H        -0.810943        -0.552156         0.187895
 H         0.021462         0.564958        -2.327580
 H        -0.561083         1.948000        -1.555122
 H         0.857763         2.109798        -3.710632
 H         3.531026         1.916607        -3.544775
 H         3.927381         0.329994        -2.038524
 H         4.090295         1.591822        -0.815769
 H         2.883879        -0.483897         0.027771
