19
Iteration:  4673charge 0 multiplicity 1
 C         0.130161        -0.645125        -0.282095
 C         1.016974         0.482004        -0.591274
 C         0.517613         1.620594        -1.567029
 C         1.393981         1.865894        -2.803147
 O         2.093767         3.172772        -2.818857
 C         2.891849         1.945286        -2.793579
 C         3.413980         1.359326        -1.363173
 C         2.493191         0.503995        -0.524244
 O         1.693123         1.079882         0.525728
 H        -0.671690        -0.965499        -1.052236
 H         0.751145        -1.627809        -0.234283
 H        -0.354956        -0.581308         0.682379
 H        -0.492264         1.396565        -1.954877
 H         0.380524         2.623882        -0.982147
 H         0.917567         1.404030        -3.752158
 H         3.506201         1.859861        -3.653347
 H         4.313635         0.675441        -1.623036
 H         3.784975         2.190170        -0.714525
 H         3.013717        -0.454705        -0.326448
