19
Iteration:  4884
 C         0.106448        -0.361862         0.133572
 C         1.066747         0.505473        -0.739803
 C         0.516548         1.063110        -1.973470
 C         1.424024         1.973678        -2.747579
 O         1.941268         3.098527        -2.038146
 C         2.891550         2.149599        -2.487735
 C         3.485813         1.032513        -1.740761
 C         2.489725         0.426695        -0.679349
 O         1.751173         1.414061         0.057460
 H        -0.381764        -1.066604        -0.620674
 H         0.576583        -0.746056         1.039289
 H        -0.613921         0.482042         0.136480
 H         0.219835         0.256863        -2.606449
 H        -0.491918         1.659632        -1.942523
 H         1.056074         2.030397        -3.909466
 H         3.588976         2.571270        -3.259119
 H         3.819982         0.187115        -2.506953
 H         4.368979         1.384840        -1.125095
 H         3.038337        -0.280431        -0.074723
