19
Iteration:    47charge 0 multiplicity 1
 C         0.229985        -0.473637        -0.278690
 C         1.115506         0.635238        -0.634556
 C         0.344221         1.646049        -1.499339
 C         1.204023         2.178800        -2.616861
 O         2.173883         3.116916        -2.154760
 C         2.619516         1.900455        -2.752317
 C         3.349744         0.849528        -1.941008
 C         2.558376         0.355654        -0.722793
 O         2.009688         1.176831         0.344476
 H         0.714841        -1.064820         0.645854
 H        -0.840869        -0.276652        -0.150257
 H         0.230501        -1.086304        -1.133575
 H        -0.495584         1.110984        -1.913600
 H        -0.117101         2.470513        -0.844551
 H         0.594789         2.454629        -3.502995
 H         3.112238         2.000809        -3.677719
 H         3.581743         0.024915        -2.561532
 H         4.330069         1.268811        -1.579417
 H         2.941526        -0.559241        -0.348695
