19
Iteration:  3083
 C         0.265197        -0.620600        -0.274130
 C         1.049202         0.568672        -0.619839
 C         0.385270         1.547614        -1.641442
 C         1.267987         1.954166        -2.781745
 O         2.165527         3.185793        -2.826380
 C         2.799601         1.859257        -2.626725
 C         3.456663         1.330476        -1.394210
 C         2.528933         0.386134        -0.535531
 O         1.709930         1.154324         0.492184
 H         0.233860        -1.254516        -1.153335
 H         0.770084        -1.313715         0.413515
 H        -0.828803        -0.273441         0.062399
 H        -0.564474         1.152152        -2.098458
 H         0.118564         2.393923        -0.966171
 H         0.777766         1.808745        -3.752060
 H         3.346684         1.699418        -3.619539
 H         4.285483         0.615179        -1.707669
 H         3.838742         2.116436        -0.671469
 H         3.015073        -0.545718        -0.072762
