19
Iteration:  2088
 C         0.137095        -0.420745         0.033468
 C         1.048274         0.540513        -0.707124
 C         0.517590         1.086189        -1.991933
 C         1.398655         2.008012        -2.854947
 O         2.010072         3.242091        -2.272119
 C         2.848015         2.014576        -2.608496
 C         3.433578         1.081278        -1.582162
 C         2.466762         0.421799        -0.585567
 O         1.781603         1.367676         0.277296
 H        -0.278810        -1.199026        -0.599501
 H         0.768787        -0.832667         0.780210
 H        -0.628817         0.016172         0.681310
 H         0.265467         0.267234        -2.588365
 H        -0.447875         1.632224        -1.806307
 H         0.907500         2.256013        -3.784672
 H         3.525075         2.303388        -3.460193
 H         3.814745         0.172593        -2.065807
 H         4.261700         1.492435        -0.976590
 H         2.977868        -0.485705        -0.090470
