19
Iteration:  1581charge 0 multiplicity 1
 C         0.160669        -0.504981        -0.051855
 C         1.092778         0.524042        -0.684389
 C         0.418693         1.354477        -1.825143
 C         1.296784         2.110666        -2.822194
 O         2.054963         3.210613        -2.377026
 C         2.763296         1.967130        -2.661601
 C         3.395785         1.095554        -1.634201
 C         2.539010         0.344227        -0.592660
 O         1.888119         1.272224         0.375840
 H        -0.898992        -0.315101        -0.273639
 H         0.411195        -1.623894        -0.290662
 H         0.476845        -0.526702         1.140102
 H        -0.090240         0.570711        -2.474191
 H        -0.364576         2.020376        -1.460268
 H         0.831177         2.217097        -3.763559
 H         3.446021         2.089660        -3.418270
 H         3.855195         0.374735        -2.313152
 H         4.267632         1.509979        -1.120218
 H         3.008126        -0.579908        -0.130068
