19
Iteration:   822charge 0 multiplicity 1
 C         0.138928        -0.305890         0.104025
 C         1.049309         0.547975        -0.702215
 C         0.308535         1.395896        -1.753330
 C         1.187379         2.307919        -2.557716
 O         2.163320         3.157975        -1.926797
 C         2.673982         1.993435        -2.729090
 C         3.488705         0.956811        -1.989146
 C         2.523365         0.188255        -0.913158
 O         2.069861         1.081410         0.130400
 H        -0.322994         0.298763         0.908904
 H        -0.587716        -0.857645        -0.532543
 H         0.682978        -1.007163         0.698872
 H        -0.224780         0.605178        -2.470126
 H        -0.634863         1.932060        -1.345320
 H         0.672968         2.887066        -3.293036
 H         3.133974         2.406802        -3.692717
 H         4.057615         0.300189        -2.666283
 H         4.235523         1.450794        -1.393077
 H         2.861685        -0.717915        -0.368783
