19
Iteration:  3290charge 0 multiplicity 1
 C         0.237265        -0.674811        -0.564618
 C         1.078649         0.581043        -0.686380
 C         0.656260         1.767114        -1.465439
 C         1.324780         1.847896        -2.906746
 O         2.039338         3.053202        -2.846978
 C         2.681151         1.722398        -2.732214
 C         3.367668         1.418550        -1.251511
 C         2.552721         0.515517        -0.362971
 O         1.699424         1.134249         0.597436
 H        -0.299402        -0.953028        -1.426412
 H         0.916342        -1.377597        -0.296383
 H        -0.477783        -0.588810         0.217753
 H        -0.480902         1.733146        -1.509901
 H         1.071060         2.588755        -1.053836
 H         0.765864         1.609752        -3.787948
 H         3.177788         1.239774        -3.593849
 H         4.281327         0.875428        -1.251509
 H         3.380435         2.453094        -0.881121
 H         3.092569        -0.569833        -0.179076
