19
Iteration:  4843
 C         0.184669        -0.456583        -0.058352
 C         1.088743         0.508999        -0.707080
 C         0.408853         1.230160        -1.934900
 C         1.305020         2.099733        -2.790105
 O         2.130972         3.114816        -2.219541
 C         2.746648         1.891221        -2.678123
 C         3.456589         1.126410        -1.586506
 C         2.556745         0.465585        -0.559209
 O         1.744215         1.358380         0.307844
 H        -0.351916        -1.073206        -0.755550
 H         0.688382        -1.269642         0.531603
 H        -0.573483         0.287545         0.346800
 H         0.341476         0.386708        -2.723576
 H        -0.596291         1.493168        -1.792707
 H         1.052169         2.495151        -3.829597
 H         3.394711         1.989903        -3.638130
 H         4.073298         0.396545        -2.034574
 H         4.032613         1.898070        -1.061155
 H         3.002842        -0.409349        -0.064301
