19
Iteration:  3888
 C         0.171053        -0.577080        -0.039650
 C         1.054910         0.544808        -0.672557
 C         0.408104         1.228514        -1.905490
 C         1.403479         1.996035        -2.842676
 O         2.070941         3.128567        -2.237285
 C         2.807776         1.964878        -2.602204
 C         3.435232         1.074285        -1.548740
 C         2.452834         0.495879        -0.557984
 O         1.827941         1.481943         0.202059
 H        -0.242599        -1.176445        -0.913676
 H         0.753569        -1.296475         0.564808
 H        -0.722512        -0.190047         0.437342
 H        -0.119827         0.413008        -2.608381
 H        -0.381740         1.956867        -1.607582
 H         1.018051         2.114661        -3.892686
 H         3.444929         2.266900        -3.417716
 H         3.740315         0.216266        -2.206024
 H         4.343758         1.556447        -1.203750
 H         3.019152        -0.199016         0.059787
