19
Iteration:  4498
 C         0.295099        -0.663886        -0.273844
 C         1.060593         0.550478        -0.672910
 C         0.454164         1.642701        -1.583474
 C         1.342447         1.983614        -2.792451
 O         2.204027         3.193613        -2.792935
 C         2.807173         1.879109        -2.708655
 C         3.359660         1.274857        -1.437069
 C         2.509543         0.421704        -0.512647
 O         1.628318         1.098254         0.510130
 H         0.574570        -1.756346        -0.535399
 H         0.232601        -0.511079         0.920566
 H        -0.705301        -0.752806        -0.410333
 H        -0.444145         1.126137        -2.110871
 H         0.063680         2.409781        -0.808870
 H         0.699077         1.888984        -3.704261
 H         3.335571         1.758858        -3.602971
 H         4.248149         0.646324        -1.679235
 H         3.812994         2.149159        -0.969404
 H         2.956583        -0.543711        -0.200403
