19
Iteration:  3438charge 0 multiplicity 1
 C         0.326415        -0.639870        -0.485835
 C         1.039369         0.616622        -0.596033
 C         0.505885         1.614911        -1.596180
 C         1.277951         1.908330        -2.857060
 O         2.159475         3.109410        -2.707544
 C         2.714222         1.724459        -2.701940
 C         3.331530         1.274197        -1.408136
 C         2.521789         0.498308        -0.417468
 O         1.748452         1.229013         0.561099
 H         0.153335        -1.025754        -1.523188
 H         0.884662        -1.506173         0.039420
 H        -0.600311        -0.544489         0.058866
 H        -0.437762         1.252942        -1.854301
 H         0.217525         2.587088        -1.024179
 H         0.657824         2.120578        -3.764947
 H         3.289429         1.485507        -3.601849
 H         4.273135         0.674760        -1.635379
 H         3.649166         2.184560        -0.843567
 H         2.815882        -0.460969        -0.144182
