19
Iteration:  1984
 C         0.290099        -0.606627        -0.056075
 C         1.023747         0.576592        -0.545595
 C         0.486267         1.259036        -1.859961
 C         1.387413         2.081114        -2.870069
 O         2.160327         3.159143        -2.365725
 C         2.812281         1.913593        -2.662409
 C         3.344093         1.068569        -1.651502
 C         2.461438         0.553840        -0.539670
 O         1.638936         1.405874         0.335508
 H         0.537792        -1.439405        -0.704477
 H         0.719455        -0.964736         0.951537
 H        -0.773719        -0.408968        -0.075536
 H         0.135871         0.297373        -2.462432
 H        -0.404470         1.839318        -1.583531
 H         0.944832         2.262889        -3.937117
 H         3.534227         2.060070        -3.529258
 H         3.593682         0.082502        -2.086361
 H         4.318393         1.405605        -1.300894
 H         2.970940        -0.165974         0.051103
