19
Iteration:   188
 C         0.244631        -0.555738        -0.074745
 C         1.027998         0.570482        -0.646662
 C         0.352003         1.531543        -1.633198
 C         1.228995         2.376339        -2.592037
 O         2.295989         3.232791        -2.206088
 C         2.619165         1.921662        -2.802592
 C         3.352511         0.884574        -1.883235
 C         2.449914         0.303902        -0.778941
 O         1.968908         1.110984         0.340331
 H         0.934261        -0.984461         0.729100
 H        -0.659582        -0.295842         0.378378
 H         0.073037        -1.259638        -0.764496
 H        -0.335932         0.979808        -2.215951
 H        -0.240024         2.251429        -1.057186
 H         0.743065         2.717294        -3.537436
 H         3.097591         1.980031        -3.816063
 H         3.836126         0.113363        -2.481999
 H         4.219298         1.401958        -1.379121
 H         2.834950        -0.647502        -0.448143
