19
Iteration:  2932
 C         0.152896        -0.353919        -0.022356
 C         1.133566         0.498462        -0.738568
 C         0.478412         1.028880        -2.019144
 C         1.315810         2.091014        -2.717364
 O         1.961913         3.114084        -1.979401
 C         2.757715         1.949604        -2.634221
 C         3.504515         1.040996        -1.620098
 C         2.583663         0.457141        -0.521360
 O         1.807647         1.501119         0.017808
 H        -0.131748        -1.144602        -0.694569
 H         0.422438        -0.642706         0.961483
 H        -0.834864         0.192716         0.084750
 H         0.337668         0.217217        -2.688725
 H        -0.569151         1.354533        -1.790278
 H         0.772033         2.282289        -3.757224
 H         3.461677         2.227167        -3.522955
 H         3.711693         0.100406        -2.258068
 H         4.379539         1.413932        -1.218403
 H         3.054508        -0.232869         0.164321
