19
Iteration:    99charge 0 multiplicity 1
 C         0.220276        -0.587740        -0.015121
 C         1.000107         0.521389        -0.625261
 C         0.308956         1.591286        -1.555784
 C         1.235448         2.322416        -2.596654
 O         2.377003         3.291875        -2.389795
 C         2.645695         1.948238        -2.887893
 C         3.403578         1.087072        -1.767972
 C         2.428116         0.215849        -0.836665
 O         1.967783         0.963909         0.369316
 H         0.887890        -1.188689         0.585668
 H        -0.436395        -0.076765         0.642322
 H        -0.403260        -1.204907        -0.635978
 H        -0.474700         1.085306        -2.126327
 H        -0.260334         2.281184        -0.978628
 H         0.566361         2.662866        -3.352360
 H         3.038976         1.885593        -3.902252
 H         4.208934         0.442376        -2.176413
 H         3.803666         1.818621        -1.073945
 H         2.697257        -0.835874        -0.621199
