19
Iteration:  1049
 C         0.157911        -0.581275         0.030997
 C         1.019537         0.506927        -0.651514
 C         0.465244         1.622563        -1.469626
 C         1.227330         2.206796        -2.609833
 O         2.250119         3.301564        -2.357808
 C         2.674045         1.953708        -2.757134
 C         3.390862         1.084883        -1.778200
 C         2.437783         0.284033        -0.902934
 O         1.964247         0.990438         0.231248
 H        -0.017007        -0.341008         1.050621
 H        -0.824663        -0.701598        -0.374650
 H         0.729350        -1.566765        -0.087891
 H        -0.518006         1.120816        -1.981957
 H         0.127106         2.542083        -0.894955
 H         0.708845         2.296396        -3.580871
 H         3.120160         1.962041        -3.720603
 H         4.051859         0.333083        -2.274981
 H         4.039344         1.687773        -1.068074
 H         2.726150        -0.789277        -0.774819
