19
Iteration:  2253charge 0 multiplicity 1
 C         0.068374        -0.472076        -0.084315
 C         1.031797         0.600398        -0.693944
 C         0.340040         1.233799        -1.908529
 C         1.404352         1.930809        -2.779449
 O         2.034339         3.083164        -2.266771
 C         2.851203         1.924687        -2.621877
 C         3.552376         1.170489        -1.507335
 C         2.551560         0.449798        -0.676369
 O         1.816280         1.380869         0.254582
 H        -0.449147        -1.065842        -0.806809
 H         0.638119        -1.056516         0.685588
 H        -0.709141         0.066186         0.465248
 H        -0.233355         0.521830        -2.456981
 H        -0.414255         2.041422        -1.499243
 H         1.195498         2.035247        -3.791775
 H         3.367059         2.072700        -3.577904
 H         4.327403         0.555583        -1.960052
 H         4.039582         1.940570        -0.855001
 H         3.067221        -0.441664        -0.135018
