19
Iteration:  3468
 C         0.240661        -0.728200        -0.358530
 C         1.028142         0.546198        -0.673275
 C         0.368069         1.597187        -1.556193
 C         1.332953         1.947750        -2.716437
 O         2.161180         3.023286        -2.572098
 C         2.813560         1.704359        -2.714291
 C         3.512760         1.356554        -1.473385
 C         2.509085         0.620121        -0.561536
 O         1.682328         1.267563         0.400362
 H        -0.095863        -1.218807        -1.210154
 H         0.688777        -1.378828         0.379327
 H        -0.703214        -0.419482         0.054260
 H        -0.628916         1.329401        -1.950939
 H         0.043078         2.521375        -0.933644
 H         0.781592         2.166867        -3.686663
 H         3.343436         1.517152        -3.666964
 H         4.359986         0.641443        -1.680705
 H         4.026198         2.199733        -1.020842
 H         3.060901        -0.395822        -0.282835
