19
Iteration:  1200
 C         0.117375        -0.329619         0.012842
 C         1.091175         0.602755        -0.678635
 C         0.436877         1.303824        -1.792048
 C         1.212128         2.230181        -2.655278
 O         2.048580         3.110879        -1.941189
 C         2.718284         2.063238        -2.648122
 C         3.406517         0.852246        -1.941465
 C         2.470922         0.284398        -0.846722
 O         2.130005         1.245409         0.189410
 H         0.297035        -1.328769        -0.319767
 H         0.191281        -0.197075         1.069416
 H        -1.059441         0.056831        -0.217314
 H        -0.081416         0.530537        -2.342763
 H        -0.454836         1.817819        -1.271226
 H         0.676177         2.610927        -3.641430
 H         3.334723         2.462724        -3.459649
 H         3.668010         0.037225        -2.636896
 H         4.383365         1.007089        -1.503436
 H         2.796171        -0.632779        -0.434440
