19
Iteration:  3731charge 0 multiplicity 1
 C         0.174674        -0.663879        -0.238442
 C         1.033456         0.507304        -0.633057
 C         0.338440         1.443582        -1.691395
 C         1.368404         2.068343        -2.798925
 O         2.163271         3.217756        -2.707120
 C         2.777837         1.838390        -2.665293
 C         3.528642         1.178683        -1.452237
 C         2.586247         0.487239        -0.444286
 O         1.692200         1.265326         0.438704
 H        -0.157056        -1.082865        -1.238684
 H         0.825554        -1.458121         0.268237
 H        -0.698196        -0.407733         0.407608
 H        -0.552614         0.848556        -2.052911
 H        -0.261389         2.253453        -0.961102
 H         0.932317         2.115974        -3.824752
 H         3.229202         1.697216        -3.668497
 H         4.264946         0.527727        -1.942990
 H         4.077058         1.974082        -0.974134
 H         2.996832        -0.360417        -0.026526
