19
Iteration:  1244
 C         0.111034        -0.403468         0.083108
 C         1.080005         0.474995        -0.721538
 C         0.376366         1.307478        -1.784965
 C         1.268301         2.270715        -2.614639
 O         2.170910         3.104387        -2.011347
 C         2.701769         2.025709        -2.760015
 C         3.408792         0.953273        -1.901786
 C         2.550492         0.333745        -0.819104
 O         1.975393         1.262567         0.222933
 H        -0.563686        -0.903450        -0.569858
 H         0.563293        -1.046417         0.800300
 H        -0.543928         0.312163         0.808631
 H        -0.066872         0.650906        -2.461336
 H        -0.433491         1.892725        -1.261568
 H         0.675770         2.782291        -3.493473
 H         3.238534         2.297369        -3.669573
 H         3.650802         0.162342        -2.657007
 H         4.408721         1.214251        -1.534289
 H         2.816222        -0.635759        -0.501130
