19
Iteration:  2706
 C         0.185274        -0.544605        -0.009242
 C         1.026010         0.514587        -0.712768
 C         0.393403         1.291504        -1.891112
 C         1.309298         2.044124        -2.980905
 O         2.082673         3.233968        -2.489552
 C         2.839823         1.970057        -2.643183
 C         3.432072         1.162616        -1.473192
 C         2.498281         0.417983        -0.544213
 O         1.853891         1.266979         0.455054
 H        -0.222448        -1.227981        -0.895271
 H         0.750931        -1.106723         0.665896
 H        -0.753174        -0.097743         0.439905
 H        -0.083539         0.394753        -2.381009
 H        -0.352138         1.930607        -1.306739
 H         1.038065         2.063911        -3.982993
 H         3.479419         2.043825        -3.483942
 H         4.126085         0.510905        -1.979086
 H         4.058229         1.872026        -0.796836
 H         2.800109        -0.518857        -0.062760
