19
Iteration:    19
 C         0.222034        -0.482261        -0.182236
 C         1.038910         0.727807        -0.626253
 C         0.254344         1.591766        -1.672427
 C         1.166475         2.179368        -2.712448
 O         2.134874         3.042836        -1.976952
 C         2.702050         1.947819        -2.749210
 C         3.308105         0.838499        -1.938532
 C         2.472843         0.325064        -0.768223
 O         2.221154         1.232658         0.346755
 H         0.751448        -1.119402         0.452454
 H        -0.760792        -0.281462         0.276406
 H         0.143009        -1.075654        -1.168846
 H        -0.479253         0.876822        -2.149458
 H        -0.237967         2.414384        -1.190475
 H         0.817898         2.684367        -3.634699
 H         3.386996         2.193478        -3.641198
 H         3.784027         0.008275        -2.572450
 H         4.185240         1.244250        -1.404814
 H         2.781835        -0.740341        -0.463926
