19
Iteration:  3718
 C         0.218734        -0.608102        -0.210451
 C         1.085293         0.554578        -0.655276
 C         0.420094         1.413772        -1.696964
 C         1.254132         1.996335        -2.769326
 O         2.172452         3.266898        -2.717476
 C         2.798198         1.958154        -2.671869
 C         3.520977         1.176078        -1.452748
 C         2.539541         0.442839        -0.494727
 O         1.643272         1.186593         0.447583
 H        -0.234653        -1.259473        -0.956080
 H         0.754212        -1.298080         0.586527
 H        -0.643805        -0.116016         0.376631
 H        -0.166064         0.833720        -2.357636
 H        -0.212340         2.348835        -1.223877
 H         0.825864         1.818729        -3.728452
 H         3.406767         1.694082        -3.558863
 H         4.030863         0.286067        -1.864772
 H         4.303463         1.771588        -0.937834
 H         2.874502        -0.383588         0.004465
