19
Iteration:  2912
 C         0.094926        -0.398419         0.071750
 C         1.062986         0.476072        -0.728713
 C         0.503266         1.022844        -2.021815
 C         1.375238         2.060485        -2.771984
 O         1.977470         3.178297        -2.187309
 C         2.785406         2.131657        -2.527661
 C         3.479693         1.025579        -1.691131
 C         2.548217         0.439536        -0.611117
 O         1.849681         1.397827         0.211906
 H        -0.246012        -1.372462        -0.389998
 H         0.425636        -0.435060         1.038132
 H        -0.910235         0.089994         0.135181
 H         0.320363         0.149330        -2.619008
 H        -0.402605         1.455323        -1.811073
 H         0.964587         2.203885        -3.864643
 H         3.473750         2.377638        -3.419805
 H         3.862298         0.259579        -2.367115
 H         4.207042         1.518719        -1.056735
 H         2.910518        -0.401653        -0.055326
