19
Iteration:  1816
 C         0.233207        -0.600209        -0.060938
 C         1.020860         0.642140        -0.720798
 C         0.388469         1.212266        -1.914434
 C         1.354190         1.967610        -2.819493
 O         2.101031         3.047584        -2.159787
 C         2.794970         1.887494        -2.660848
 C         3.449900         1.074290        -1.568803
 C         2.521172         0.572588        -0.553105
 O         1.734740         1.554192         0.202702
 H        -0.109994        -1.314818        -0.834856
 H         1.026077        -1.233205         0.422650
 H        -0.517103        -0.181471         0.635857
 H        -0.009955         0.312104        -2.565406
 H        -0.405239         1.862269        -1.568549
 H         0.985712         2.184182        -3.864629
 H         3.331729         2.132650        -3.521335
 H         4.052078         0.270410        -1.996902
 H         4.263660         1.705591        -1.182078
 H         2.887808        -0.280806        -0.014412
