19
Iteration:  3276
 C         0.211283        -0.681682        -0.571985
 C         1.085532         0.586672        -0.606002
 C         0.556609         1.743435        -1.546268
 C         1.234554         1.864131        -2.838526
 O         2.080240         3.086506        -2.905914
 C         2.760161         1.655296        -2.690374
 C         3.438441         1.438380        -1.352853
 C         2.547138         0.566272        -0.365859
 O         1.710353         1.065651         0.682837
 H        -0.096393        -0.877002        -1.623997
 H         0.711490        -1.668551        -0.253121
 H        -0.637585        -0.544411         0.042650
 H        -0.605646         1.815948        -1.548158
 H         0.770208         2.709386        -0.979667
 H         0.805790         1.589519        -3.796996
 H         3.354809         1.438039        -3.608068
 H         4.435063         1.112364        -1.562736
 H         3.636581         2.420110        -0.860721
 H         3.002150        -0.362493         0.032128
