19
Iteration:  2634charge 0 multiplicity 1
 C         0.252575        -0.463766        -0.014695
 C         1.068979         0.512155        -0.742489
 C         0.422638         1.107845        -1.953684
 C         1.287887         2.144511        -2.711098
 O         2.133585         2.991529        -2.042030
 C         2.805070         1.896687        -2.733598
 C         3.427763         0.999841        -1.630873
 C         2.543550         0.574708        -0.567463
 O         1.672426         1.578873         0.127491
 H        -0.146214        -1.121963        -0.722594
 H         0.973090        -0.999153         0.670063
 H        -0.569431        -0.019620         0.494056
 H         0.436612         0.266160        -2.721480
 H        -0.588329         1.388305        -1.740868
 H         0.855443         2.538450        -3.702612
 H         3.407628         2.264899        -3.595587
 H         3.980620         0.113831        -2.057893
 H         4.201096         1.575439        -1.190785
 H         2.882138        -0.239752         0.063823
