19
Iteration:  3571
 C         0.171200        -0.455679         0.028886
 C         1.073341         0.497547        -0.767481
 C         0.497132         1.109970        -2.039141
 C         1.333883         2.098692        -2.750718
 O         2.002626         3.060869        -1.975581
 C         2.782351         1.885851        -2.685521
 C         3.456219         0.977705        -1.648716
 C         2.546234         0.502698        -0.488951
 O         1.767195         1.563669         0.028706
 H        -0.247368        -1.288031        -0.634410
 H         0.658136        -0.906076         0.855587
 H        -0.612525         0.166620         0.430231
 H         0.279470         0.508214        -2.862154
 H        -0.372364         1.860134        -1.688112
 H         1.017465         2.497127        -3.716855
 H         3.435332         2.412881        -3.363371
 H         4.016434         0.207423        -2.209398
 H         4.237885         1.521344        -1.025550
 H         2.976243        -0.222998         0.196519
