19
Iteration:  3617charge 0 multiplicity 1
 C         0.208277        -0.537735         0.103201
 C         0.997393         0.523094        -0.659449
 C         0.542591         1.045220        -2.020918
 C         1.456745         2.113107        -2.801867
 O         2.097547         3.149023        -2.078571
 C         2.894276         2.042117        -2.705971
 C         3.317047         0.955260        -1.755638
 C         2.451706         0.577322        -0.573441
 O         1.675732         1.497303         0.213198
 H         0.019649        -1.377709        -0.655907
 H         0.737638        -0.983362         0.941989
 H        -0.825753        -0.207360         0.490675
 H         0.529420         0.189063        -2.667768
 H        -0.530691         1.689243        -1.940229
 H         1.185667         2.553703        -3.743760
 H         3.533709         2.329335        -3.545906
 H         3.354996        -0.049431        -2.206098
 H         4.353688         1.152599        -1.357393
 H         2.884035        -0.095984         0.117210
