19
Iteration:   158charge 0 multiplicity 1
 C        -0.000087        -0.457013        -0.122859
 C         1.121555         0.406119        -0.627690
 C         0.442323         1.522912        -1.475182
 C         1.179800         2.210340        -2.645650
 O         2.123545         3.171483        -2.290806
 C         2.776046         2.058228        -2.696383
 C         3.408846         0.991146        -1.865600
 C         2.576190         0.323974        -0.803687
 O         2.000001         1.089967         0.283396
 H         0.420312        -1.383519         0.535194
 H        -0.649168         0.156377         0.567374
 H        -0.655023        -0.766808        -0.965831
 H        -0.552152         1.234360        -1.857718
 H         0.341231         2.434706        -0.747454
 H         0.697209         2.334539        -3.702993
 H         3.234695         2.308036        -3.708863
 H         3.609479         0.311780        -2.673150
 H         4.461533         1.204738        -1.500135
 H         3.104191        -0.544383        -0.368521
