19
Iteration:  3970
 C         0.237863        -0.410037         0.029664
 C         1.018060         0.622330        -0.747054
 C         0.399168         1.158184        -1.974916
 C         1.420307         1.991805        -2.747261
 O         1.977297         3.066033        -2.050057
 C         2.849771         1.962167        -2.519302
 C         3.502829         1.015829        -1.644595
 C         2.528827         0.426345        -0.685994
 O         1.742016         1.494901         0.049927
 H         0.185880        -1.376331        -0.476054
 H         0.510321        -0.502408         1.036919
 H        -0.805147        -0.027101         0.067854
 H         0.114605         0.167637        -2.576942
 H        -0.560453         1.619147        -1.703952
 H         1.089671         2.359692        -3.724477
 H         3.300435         2.393331        -3.438086
 H         4.070842         0.220115        -2.125866
 H         4.265372         1.530359        -1.000722
 H         2.869427        -0.403706         0.028154
