19
Iteration:  2402
 C         0.093421        -0.564310         0.158749
 C         1.016153         0.443371        -0.694213
 C         0.436902         1.260711        -1.889373
 C         1.444018         2.044497        -2.821836
 O         2.063924         3.264096        -2.477442
 C         2.922353         2.025597        -2.695979
 C         3.426423         1.185227        -1.508617
 C         2.505506         0.390703        -0.558500
 O         1.767884         1.289313         0.301440
 H        -0.516222        -1.170003        -0.658115
 H         0.546564        -1.244507         0.779558
 H        -0.790066         0.011632         0.577028
 H         0.046342         0.488078        -2.711525
 H        -0.448766         1.838229        -1.563925
 H         1.005679         2.164811        -3.926108
 H         3.563716         1.978306        -3.596646
 H         4.016055         0.409323        -2.061186
 H         4.079892         1.912226        -1.079700
 H         3.087278        -0.516361        -0.213667
