19
Iteration:  3456
 C         0.233408        -0.727769        -0.412241
 C         1.047490         0.587915        -0.629358
 C         0.348828         1.634227        -1.579091
 C         1.252311         1.904542        -2.785179
 O         2.258370         3.023838        -2.532957
 C         2.735267         1.732906        -2.769713
 C         3.452342         1.351978        -1.460384
 C         2.577947         0.575105        -0.529847
 O         1.694371         1.272237         0.450461
 H         0.139729        -1.157878        -1.367829
 H         0.815371        -1.433533         0.110052
 H        -0.710539        -0.539052         0.126860
 H        -0.706909         1.274989        -1.869021
 H         0.457876         2.566525        -0.983268
 H         0.852747         1.751157        -3.828679
 H         3.216647         1.506714        -3.748213
 H         4.374263         0.785931        -1.684956
 H         3.633741         2.299741        -0.978859
 H         2.947563        -0.352491         0.144801
