19
Iteration:  1852charge 0 multiplicity 1
 C         0.180720        -0.598922        -0.036913
 C         1.043724         0.518737        -0.749149
 C         0.363282         1.288249        -1.865538
 C         1.323612         1.997539        -2.844159
 O         2.177613         3.085538        -2.347803
 C         2.802077         1.902155        -2.674377
 C         3.521276         1.258877        -1.505215
 C         2.532799         0.503443        -0.523629
 O         1.682994         1.372282         0.231080
 H        -0.653699        -1.068687        -0.399026
 H         0.895633        -1.335781         0.494408
 H        -0.184708        -0.181148         0.839578
 H        -0.409485         0.603632        -2.164827
 H        -0.206409         2.036130        -1.389338
 H         1.082709         2.073342        -4.014702
 H         3.393657         1.971219        -3.674729
 H         4.223576         0.538672        -1.897451
 H         4.013637         2.074329        -0.966962
 H         2.899357        -0.326975         0.032459
