19
Iteration:  2805charge 0 multiplicity 1
 C         0.378602        -0.683730        -0.290323
 C         1.025459         0.584136        -0.584900
 C         0.373944         1.540001        -1.672030
 C         1.302211         2.005775        -2.826564
 O         2.208589         3.113932        -2.558633
 C         2.827755         1.833450        -2.791554
 C         3.415811         1.178879        -1.604341
 C         2.440761         0.572060        -0.420692
 O         1.612792         1.276419         0.541278
 H         0.373713        -1.365156        -1.205778
 H         1.119088        -1.220948         0.203694
 H        -0.506326        -0.641246         0.344163
 H        -0.454666         0.899366        -2.245565
 H        -0.235810         2.392273        -1.196934
 H         0.957437         1.926203        -3.782010
 H         3.309078         1.835419        -3.722366
 H         3.801162         0.260860        -1.981344
 H         4.345358         1.737103        -1.193147
 H         3.003008        -0.280624        -0.040792
