19
Iteration:   836charge 0 multiplicity 1
 C         0.218650        -0.303809         0.168949
 C         1.062097         0.600023        -0.725860
 C         0.302925         1.389281        -1.800612
 C         1.210444         2.286955        -2.638895
 O         2.108312         3.098769        -1.892582
 C         2.688824         2.096581        -2.671718
 C         3.350660         0.918024        -1.832135
 C         2.498939         0.189308        -0.976259
 O         2.146533         1.091649         0.072769
 H        -0.300280         0.365973         0.977043
 H        -0.774534        -0.621823        -0.378626
 H         0.818771        -1.091057         0.509373
 H         0.023621         0.650195        -2.478154
 H        -0.557068         1.975521        -1.362927
 H         0.784621         2.656020        -3.565180
 H         3.265888         2.383391        -3.463516
 H         3.696888         0.171742        -2.590814
 H         4.225692         1.305716        -1.316917
 H         2.795706        -0.816089        -0.876515
