19
Iteration:  2681
 C         0.248667        -0.592947        -0.053374
 C         0.963402         0.569578        -0.686094
 C         0.425289         1.289906        -1.833368
 C         1.377409         1.949898        -2.766539
 O         2.043341         3.149244        -2.333813
 C         2.909025         1.997014        -2.636743
 C         3.446287         1.063089        -1.575381
 C         2.517135         0.515863        -0.583446
 O         1.719229         1.402072         0.232860
 H        -0.432237        -1.046551        -0.756418
 H         0.861382        -1.322123         0.517881
 H        -0.440510        -0.023798         0.587631
 H         0.018616         0.328447        -2.453592
 H        -0.309449         2.041323        -1.546712
 H         0.926012         2.022788        -3.779675
 H         3.530370         2.185018        -3.616560
 H         3.870379         0.269804        -2.215011
 H         4.309326         1.555114        -1.029187
 H         2.849921        -0.183765         0.137678
