19
Iteration:  4619charge 0 multiplicity 1
 C         0.313353        -0.652587        -0.410842
 C         1.088635         0.551312        -0.681207
 C         0.425054         1.714657        -1.573003
 C         1.286327         1.986563        -2.743316
 O         2.193585         3.026193        -2.749293
 C         2.744339         1.707092        -2.721444
 C         3.397650         1.365645        -1.385467
 C         2.533166         0.535156        -0.490222
 O         1.668237         1.124420         0.548711
 H        -0.185466        -0.946581        -1.390390
 H         0.930932        -1.500309         0.002290
 H        -0.404127        -0.571100         0.300104
 H        -0.637621         1.465112        -1.895346
 H         0.176829         2.612561        -0.975817
 H         0.739630         1.923517        -3.761484
 H         3.227845         1.376807        -3.608560
 H         4.436383         1.036355        -1.610438
 H         3.519594         2.306540        -0.843512
 H         2.980364        -0.466552        -0.331830
