19
Iteration:  3993
 C         0.121229        -0.466810         0.017575
 C         1.068636         0.455012        -0.772875
 C         0.460967         1.233849        -1.954946
 C         1.410927         2.010109        -2.945763
 O         1.976463         3.094265        -2.205080
 C         2.833816         2.053918        -2.585789
 C         3.424451         1.087084        -1.591843
 C         2.599652         0.473235        -0.491159
 O         1.795649         1.388165         0.231984
 H         0.131663        -1.554216        -0.375524
 H         0.491099        -0.478227         0.977102
 H        -0.911967        -0.131033         0.134325
 H        -0.420651         0.694541        -2.505694
 H        -0.133441         1.944143        -1.279279
 H         1.050218         2.222652        -3.994959
 H         3.434020         2.434387        -3.460178
 H         3.756127         0.217320        -2.215193
 H         4.396389         1.442341        -1.154279
 H         2.852045        -0.515635        -0.047470
