19
Iteration:  1352charge 0 multiplicity 1
 C         0.091023        -0.496619        -0.109876
 C         1.097959         0.521392        -0.628965
 C         0.413859         1.413421        -1.700166
 C         1.254595         2.136492        -2.686969
 O         2.166124         3.268129        -2.353063
 C         2.690869         1.891352        -2.744794
 C         3.420811         1.044192        -1.708080
 C         2.553875         0.339528        -0.687727
 O         1.934694         1.203661         0.356851
 H        -0.169371        -0.320674         0.914893
 H        -0.786145        -0.520304        -0.664086
 H         0.573401        -1.527822        -0.050802
 H        -0.469686         0.913365        -2.219936
 H        -0.087812         2.238620        -1.142718
 H         0.767498         2.342394        -3.680736
 H         3.221083         1.992284        -3.791811
 H         3.969935         0.200421        -2.253775
 H         4.172304         1.674518        -1.137381
 H         2.963580        -0.587704        -0.221662
