19
Iteration:   169charge 0 multiplicity 1
 C         0.062625        -0.536116        -0.085538
 C         1.072723         0.467855        -0.698531
 C         0.455287         1.580385        -1.522127
 C         1.287595         2.171489        -2.621969
 O         2.176493         3.281595        -2.240044
 C         2.671327         1.997317        -2.775455
 C         3.348212         0.988326        -1.888614
 C         2.587924         0.298003        -0.725821
 O         1.981741         1.094529         0.281360
 H         0.448800        -1.353060         0.668682
 H        -0.632404         0.152953         0.464249
 H        -0.537690        -1.103204        -0.848766
 H        -0.438049         1.132843        -1.998582
 H         0.021625         2.367244        -0.789281
 H         0.624126         2.488920        -3.518764
 H         3.263817         2.001119        -3.734971
 H         3.465874         0.121428        -2.524579
 H         4.373193         1.340764        -1.579269
 H         3.098560        -0.625496        -0.368997
