19
Iteration:  2438charge 0 multiplicity 1
 C         0.168977        -0.499477        -0.143077
 C         1.122458         0.598632        -0.676903
 C         0.371428         1.392332        -1.837586
 C         1.337915         1.979085        -2.812045
 O         2.044692         3.029384        -2.357982
 C         2.810814         1.820113        -2.720803
 C         3.514530         1.250409        -1.481088
 C         2.606827         0.487237        -0.554411
 O         1.709184         1.319257         0.327733
 H        -0.535616        -0.690112        -0.941966
 H         0.710733        -1.535130         0.125850
 H        -0.349884        -0.181022         0.809087
 H        -0.141432         0.538876        -2.393060
 H        -0.356442         2.072901        -1.535105
 H         0.872952         2.055817        -3.788996
 H         3.322928         1.830666        -3.701747
 H         4.353005         0.604032        -1.707310
 H         4.033287         1.981274        -0.826663
 H         2.867290        -0.445309        -0.232377
