19
Iteration:  4604
 C         0.261448        -0.742878        -0.405060
 C         0.988587         0.623284        -0.563197
 C         0.503188         1.626735        -1.457798
 C         1.347774         1.938756        -2.774530
 O         2.206770         3.147481        -2.836676
 C         2.787383         1.787643        -2.779204
 C         3.415023         1.390678        -1.417410
 C         2.457907         0.493247        -0.556518
 O         1.658155         1.114192         0.551882
 H         0.048581        -1.343465        -1.291966
 H         0.892921        -1.462806         0.192329
 H        -0.807217        -0.553084         0.157263
 H        -0.462928         1.339350        -1.739575
 H         0.429383         2.621485        -0.841829
 H         0.789030         1.708792        -3.639763
 H         3.228150         1.539642        -3.760405
 H         4.344714         0.712993        -1.452491
 H         3.665336         2.381160        -0.907493
 H         2.931394        -0.393707        -0.111399
