19
Iteration:  3153charge 0 multiplicity 1
 C         0.266670        -0.553155        -0.460927
 C         1.075204         0.609036        -0.645221
 C         0.404774         1.667980        -1.599962
 C         1.331186         1.864893        -2.786652
 O         2.042697         3.063192        -2.799975
 C         2.778857         1.744480        -2.642082
 C         3.425524         1.403225        -1.309281
 C         2.528839         0.443983        -0.545203
 O         1.799788         1.104225         0.593975
 H        -0.195559        -0.890761        -1.413054
 H         0.793850        -1.431204        -0.122511
 H        -0.518319        -0.208602         0.178929
 H        -0.534713         1.293056        -1.996471
 H         0.235526         2.732425        -1.058186
 H         0.980168         1.463214        -3.768522
 H         3.271371         1.519136        -3.553199
 H         4.380015         0.949181        -1.608537
 H         3.476375         2.285531        -0.698800
 H         2.934093        -0.415906        -0.181346
