19
Iteration:   145charge 0 multiplicity 1
 C        -0.018570        -0.387837        -0.135757
 C         1.106766         0.535907        -0.645459
 C         0.412226         1.546679        -1.503203
 C         1.221033         2.071998        -2.687262
 O         2.012519         3.217224        -2.226210
 C         2.756172         2.050619        -2.725657
 C         3.515869         0.970609        -1.861593
 C         2.578763         0.270249        -0.840896
 O         2.070671         1.055239         0.316796
 H         0.285082        -1.484828         0.194835
 H        -0.581980         0.090116         0.643107
 H        -0.626087        -0.552404        -0.934763
 H        -0.596646         1.302349        -1.664587
 H         0.342127         2.386187        -0.720810
 H         0.595387         2.279091        -3.621277
 H         3.278134         2.163108        -3.696083
 H         3.943851         0.184627        -2.422375
 H         4.288174         1.445795        -1.195578
 H         2.919477        -0.729030        -0.620421
