19
Iteration:  1109
 C         0.163465        -0.510904        -0.237363
 C         1.119363         0.608870        -0.623016
 C         0.335440         1.502447        -1.585530
 C         1.219397         2.246839        -2.569854
 O         2.205208         3.131535        -2.144606
 C         2.627547         1.884239        -2.871753
 C         3.356138         0.917157        -1.890543
 C         2.543371         0.365358        -0.686874
 O         2.043870         1.223219         0.359602
 H         0.619285        -1.238301         0.534119
 H        -0.842968        -0.061575         0.115313
 H        -0.123037        -1.046634        -1.151999
 H        -0.295964         0.926167        -2.151917
 H        -0.373734         2.136110        -1.063057
 H         0.638825         2.502139        -3.474882
 H         3.102073         2.205373        -3.910986
 H         3.815090         0.041430        -2.476314
 H         4.227574         1.463686        -1.415960
 H         2.920238        -0.622705        -0.241283
