19
Iteration:  3755charge 0 multiplicity 1
 C         0.233019        -0.691960        -0.328518
 C         1.025138         0.592421        -0.651840
 C         0.482992         1.555449        -1.642894
 C         1.342693         1.863615        -2.787507
 O         2.197578         3.008505        -2.486430
 C         2.755873         1.799846        -2.748737
 C         3.379725         1.304614        -1.441740
 C         2.489019         0.552099        -0.585934
 O         1.736932         1.326900         0.423760
 H        -0.170290        -1.190482        -1.281584
 H         0.856659        -1.351405         0.192415
 H        -0.544756        -0.398521         0.339799
 H        -0.544895         1.029226        -1.917131
 H         0.088312         2.512611        -1.149450
 H         0.812613         2.249131        -3.712360
 H         3.264072         1.684317        -3.730161
 H         4.269210         0.700893        -1.663771
 H         3.680475         2.245708        -1.021135
 H         2.873209        -0.416800        -0.195924
