19
Iteration:   315
 C         0.184598        -0.356104         0.154271
 C         1.043634         0.519681        -0.763502
 C         0.298622         1.400896        -1.795283
 C         1.225106         2.271215        -2.640027
 O         2.169224         3.115593        -1.943876
 C         2.703323         2.024951        -2.742912
 C         3.442664         0.983516        -1.841867
 C         2.446152         0.248710        -0.923583
 O         2.071429         1.133167         0.125889
 H         0.651365        -1.183638         0.594055
 H         0.080496         0.435734         0.931419
 H        -0.910700        -0.678240        -0.195429
 H        -0.247344         0.651520        -2.495711
 H        -0.476496         1.947569        -1.183941
 H         0.848875         2.693813        -3.562766
 H         3.275930         2.221047        -3.621253
 H         4.027652         0.249635        -2.429430
 H         4.028796         1.470248        -1.098308
 H         2.788254        -0.759238        -0.603776
