19
Iteration:  4744
 C         0.105507        -0.664755        -0.307521
 C         1.044898         0.620714        -0.607423
 C         0.358523         1.549671        -1.652236
 C         1.285539         1.957321        -2.817684
 O         2.216271         3.111144        -2.651290
 C         2.783391         1.769405        -2.723856
 C         3.458913         1.372423        -1.407951
 C         2.496162         0.552863        -0.558415
 O         1.885613         1.148617         0.546225
 H         0.433276        -1.269348        -1.166632
 H         0.269727        -1.378945         0.471286
 H        -1.002004        -0.455627        -0.562066
 H        -0.537409         0.818420        -2.110498
 H        -0.256385         2.287880        -1.158149
 H         0.848079         2.047458        -3.842457
 H         3.302221         1.334381        -3.681005
 H         4.326415         0.821486        -1.596083
 H         3.674927         2.290402        -0.861389
 H         2.960549        -0.394147        -0.294979
