19
Iteration:  4865
 C        -0.016822        -0.420251         0.097465
 C         1.059042         0.491126        -0.740044
 C         0.516629         1.040583        -2.022003
 C         1.353248         2.061206        -2.799011
 O         2.039225         3.151456        -2.098554
 C         2.827476         2.069541        -2.669094
 C         3.494735         1.097552        -1.629635
 C         2.580725         0.437043        -0.591578
 O         1.792987         1.376967         0.170796
 H        -0.440561        -1.199084        -0.488563
 H         0.703540        -0.978908         0.695814
 H        -0.790137         0.297454         0.480374
 H         0.056950         0.256104        -2.642890
 H        -0.324127         1.591141        -1.763974
 H         0.932717         2.541191        -3.737486
 H         3.488958         2.313450        -3.575145
 H         3.867275         0.248732        -2.145451
 H         4.299533         1.619648        -1.091629
 H         3.144325        -0.314196        -0.025111
