19
Iteration:  4361charge 0 multiplicity 1
 C         0.131439        -0.408085         0.048554
 C         1.048629         0.520077        -0.789955
 C         0.435881         1.103139        -2.090734
 C         1.365748         2.037635        -2.782392
 O         1.988945         3.059507        -2.013990
 C         2.805802         1.969849        -2.598636
 C         3.499296         1.052251        -1.617036
 C         2.562306         0.488625        -0.549525
 O         1.813995         1.457127         0.109462
 H        -0.391052        -1.051731        -0.619007
 H         0.676291        -0.839546         0.798929
 H        -0.527858         0.350947         0.587020
 H         0.054558         0.326614        -2.707224
 H        -0.640429         1.592391        -1.820097
 H         0.943088         2.590462        -3.624389
 H         3.508171         2.243577        -3.431972
 H         3.998308         0.177695        -2.197132
 H         4.340804         1.737862        -1.174781
 H         3.035269        -0.407019        -0.166405
