19
Iteration:  2598
 C         0.108678        -0.469424         0.121685
 C         1.074902         0.519547        -0.680487
 C         0.521450         1.124660        -1.970433
 C         1.357510         2.080463        -2.840693
 O         2.027427         3.171589        -2.192520
 C         2.891515         2.096431        -2.620663
 C         3.391436         1.000704        -1.698879
 C         2.520775         0.451280        -0.588099
 O         1.759485         1.417556         0.188443
 H         0.267703        -1.592198        -0.245293
 H         0.384338        -0.564090         1.129608
 H        -0.962887        -0.148666         0.224435
 H         0.326624         0.284024        -2.603125
 H        -0.527636         1.570738        -1.794156
 H         0.946058         2.108921        -3.893136
 H         3.681650         2.456973        -3.265948
 H         3.551066         0.084900        -2.347895
 H         4.327673         1.296526        -1.170631
 H         3.052447        -0.405533        -0.026033
