19
Iteration:  4385
 C         0.175555        -0.527552         0.135328
 C         0.965022         0.490727        -0.674828
 C         0.472446         1.168430        -1.898363
 C         1.445825         2.007808        -2.838910
 O         2.119856         3.169728        -2.210228
 C         2.899412         2.102701        -2.593224
 C         3.489933         1.110491        -1.651737
 C         2.420182         0.423264        -0.696894
 O         1.636291         1.392630         0.154757
 H        -0.414435        -1.111647        -0.527749
 H         0.916018        -1.075114         0.676296
 H        -0.361998         0.069030         0.938110
 H         0.126422         0.422641        -2.551681
 H        -0.597580         1.600860        -1.656209
 H         1.096863         2.277659        -3.809389
 H         3.531988         2.136195        -3.521399
 H         4.074572         0.287362        -2.235297
 H         4.231454         1.689891        -0.983833
 H         2.906952        -0.448906        -0.207584
