19
Iteration:  1854charge 0 multiplicity 1
 C         0.180636        -0.606460        -0.035650
 C         1.040217         0.499896        -0.739016
 C         0.387128         1.284459        -1.872366
 C         1.319640         2.004206        -2.860959
 O         2.169347         3.106679        -2.364487
 C         2.797132         1.898591        -2.667684
 C         3.510073         1.268613        -1.503674
 C         2.530412         0.507044        -0.515370
 O         1.694205         1.362309         0.240982
 H        -0.696105        -1.101564        -0.430903
 H         0.829459        -1.284097         0.464851
 H        -0.174779        -0.126636         0.878298
 H        -0.336461         0.652706        -2.187585
 H        -0.179809         2.083568        -1.356310
 H         1.061620         2.074179        -3.994373
 H         3.414537         1.912966        -3.689973
 H         4.179510         0.496980        -1.925270
 H         4.047927         2.040020        -0.926180
 H         2.888462        -0.377052         0.083713
