19
Iteration:  1634
 C         0.309039        -0.618565        -0.144922
 C         1.051890         0.556959        -0.688223
 C         0.383072         1.390495        -1.779388
 C         1.262121         2.073332        -2.754250
 O         2.175506         3.095656        -2.228755
 C         2.722647         1.762769        -2.779402
 C         3.469873         1.087195        -1.604778
 C         2.506262         0.584985        -0.544912
 O         1.752804         1.397506         0.255600
 H        -0.285546        -0.302680         0.669032
 H        -0.498164        -1.053037        -0.905308
 H         0.954162        -1.530915         0.109257
 H        -0.367659         0.804619        -2.329776
 H        -0.280890         2.267300        -1.322794
 H         0.814095         2.286836        -3.664036
 H         3.223322         1.939791        -3.697389
 H         4.139830         0.247109        -1.929416
 H         4.127765         1.875407        -1.149740
 H         2.898474        -0.318566        -0.044701
