19
Iteration:  3929
 C         0.167273        -0.441819         0.069548
 C         1.116216         0.466697        -0.685571
 C         0.570365         1.037117        -2.052349
 C         1.329239         2.163220        -2.773363
 O         2.127991         3.109428        -2.013617
 C         2.819739         1.961855        -2.740800
 C         3.346991         1.003042        -1.739850
 C         2.561047         0.550566        -0.514043
 O         1.613922         1.489070         0.184147
 H        -0.402704        -1.257901        -0.599407
 H         0.745893        -0.843905         0.881374
 H        -0.718977         0.116153         0.421862
 H         0.575286         0.302588        -2.746856
 H        -0.541478         1.401951        -1.907176
 H         0.997642         2.474877        -3.804384
 H         3.563558         2.150310        -3.522673
 H         3.675776         0.060151        -2.298812
 H         4.299780         1.461034        -1.371125
 H         3.035054        -0.171619         0.076378
