19
Iteration:  2109
 C         0.115712        -0.566802        -0.126503
 C         1.054688         0.565115        -0.586767
 C         0.436487         1.242884        -1.919954
 C         1.359349         1.972638        -2.859353
 O         2.024051         3.085320        -2.249313
 C         2.824769         1.995505        -2.604760
 C         3.474256         1.074376        -1.658225
 C         2.521542         0.506235        -0.460802
 O         1.836307         1.481549         0.274244
 H        -0.056173        -1.066673        -1.081958
 H         0.356810        -1.166073         0.632458
 H        -0.833268        -0.136273         0.246797
 H         0.132271         0.383046        -2.513542
 H        -0.511964         1.827169        -1.692723
 H         1.016956         2.011995        -3.922139
 H         3.481117         2.241155        -3.535067
 H         3.862662         0.268461        -2.312104
 H         4.353260         1.531887        -1.173198
 H         3.026449        -0.286123         0.169509
