19
Iteration:  1880
 C         0.163981        -0.543024        -0.096486
 C         1.081804         0.537467        -0.622078
 C         0.472040         1.296883        -1.801887
 C         1.391110         2.000274        -2.823895
 O         2.029950         3.239479        -2.608058
 C         2.886217         2.001419        -2.691583
 C         3.411596         1.142026        -1.554221
 C         2.532026         0.441802        -0.474871
 O         1.715507         1.268729         0.416322
 H        -0.505243        -1.024950        -0.923977
 H         0.671650        -1.357546         0.439572
 H        -0.595006        -0.151539         0.707987
 H        -0.059366         0.398288        -2.252840
 H        -0.346220         2.000022        -1.414268
 H         1.102497         1.832036        -3.781575
 H         3.516321         2.154961        -3.502606
 H         4.024218         0.314937        -1.998416
 H         4.058133         1.785004        -0.901823
 H         2.974074        -0.446966         0.081799
