19
Iteration:  2222charge 0 multiplicity 1
 C         0.042480        -0.428012        -0.239930
 C         1.128533         0.517873        -0.730634
 C         0.454519         1.318129        -1.830431
 C         1.374543         1.931723        -2.860115
 O         1.969297         3.064798        -2.321097
 C         2.798080         1.904128        -2.698723
 C         3.450206         1.165677        -1.523055
 C         2.609061         0.476259        -0.498470
 O         1.821664         1.326877         0.372591
 H        -0.363380        -1.107967        -0.900199
 H         0.360881        -0.977340         0.751021
 H        -0.683718         0.192300         0.217803
 H        -0.311929         0.711553        -2.232133
 H         0.060543         2.198892        -1.216198
 H         1.015844         2.027095        -3.851278
 H         3.442815         2.081213        -3.527092
 H         4.263300         0.536097        -1.928501
 H         4.023865         1.949000        -0.941186
 H         3.279918        -0.363247        -0.009757
