19
Iteration:   391
 C         0.327322        -0.583095        -0.178822
 C         1.059160         0.660696        -0.614636
 C         0.339853         1.594277        -1.635220
 C         1.156385         2.283911        -2.633755
 O         2.347810         3.198321        -2.138070
 C         2.526396         1.830964        -2.802988
 C         3.278022         0.886099        -1.929335
 C         2.517980         0.377588        -0.744575
 O         2.010746         1.153303         0.414770
 H         0.678315        -0.948114         0.664650
 H        -0.725509        -0.327745        -0.073314
 H         0.371673        -1.307024        -1.000364
 H        -0.223929         0.827973        -2.200327
 H        -0.427515         2.166495        -1.079635
 H         0.757202         2.875465        -3.445145
 H         3.051952         1.885823        -3.771126
 H         3.594291        -0.021980        -2.485500
 H         4.113973         1.420759        -1.501707
 H         2.660966        -0.650441        -0.437406
