19
Iteration:  4644
 C         0.189995        -0.621393        -0.436389
 C         1.084210         0.570236        -0.628122
 C         0.443167         1.648679        -1.629589
 C         1.215428         1.886356        -2.802314
 O         2.189185         3.059762        -2.696427
 C         2.689171         1.749756        -2.691027
 C         3.467047         1.401783        -1.284867
 C         2.555047         0.535466        -0.522830
 O         1.793714         1.151636         0.504939
 H        -0.456896        -0.631033        -1.307982
 H         0.785193        -1.513169        -0.412529
 H        -0.330297        -0.767665         0.483711
 H        -0.656606         1.322504        -1.916118
 H         0.100367         2.509831        -1.169995
 H         0.848522         1.657575        -3.826107
 H         3.274970         1.362316        -3.605449
 H         4.403323         0.956277        -1.463503
 H         3.668595         2.309543        -0.751771
 H         2.946669        -0.494312        -0.413065
