19
Iteration:  1166
 C         0.278563        -0.513814         0.193746
 C         0.980825         0.482163        -0.743479
 C         0.366801         1.424740        -1.765484
 C         1.257661         2.304364        -2.691312
 O         2.232287         3.176250        -2.040038
 C         2.744041         2.061114        -2.649278
 C         3.389871         0.861739        -1.867229
 C         2.458888         0.302982        -0.860516
 O         1.879727         1.233448         0.103373
 H         0.703219        -1.508099         0.209930
 H         0.391671        -0.125631         1.183977
 H        -0.898037        -0.721763        -0.086549
 H        -0.332642         0.949343        -2.396547
 H        -0.126572         2.153622        -1.036417
 H         0.742312         2.710078        -3.660023
 H         3.359008         2.363861        -3.552610
 H         3.455686         0.211356        -2.746125
 H         4.365966         1.012775        -1.395643
 H         2.868665        -0.531012        -0.319329
