19
Iteration:   654charge 0 multiplicity 1
 C         0.192833        -0.399110         0.070310
 C         1.032207         0.670000        -0.643499
 C         0.285847         1.551689        -1.660427
 C         1.289513         2.151545        -2.728593
 O         2.112737         3.204641        -2.165510
 C         2.756323         2.086986        -2.681785
 C         3.410578         0.992218        -1.792241
 C         2.401010         0.228999        -0.996376
 O         2.120934         0.893725         0.275472
 H        -0.232729         0.106590         0.862405
 H        -0.689505        -0.734261        -0.436855
 H         0.826950        -1.234343         0.496855
 H        -0.498171         0.991325        -2.046014
 H        -0.276899         2.350064        -1.215856
 H         0.783684         2.307216        -3.710226
 H         3.277220         2.439417        -3.677142
 H         4.080200         0.355687        -2.321315
 H         4.042546         1.485961        -1.033478
 H         2.575866        -0.889583        -0.873256
