19
Iteration:  4328
 C         0.097574        -0.305417        -0.107423
 C         1.110770         0.608701        -0.674460
 C         0.497854         0.990482        -2.012764
 C         1.348222         2.021657        -2.783712
 O         1.910172         3.052634        -1.980591
 C         2.838831         2.034893        -2.587390
 C         3.438016         0.986591        -1.739164
 C         2.616554         0.460442        -0.534311
 O         1.845250         1.485253         0.169784
 H         0.006067        -1.204178        -0.701421
 H         0.289278        -0.608519         0.868425
 H        -0.941900         0.162441        -0.147036
 H         0.410919         0.200732        -2.656670
 H        -0.547044         1.513233        -1.879788
 H         0.804747         2.533281        -3.572845
 H         3.450812         2.372027        -3.444478
 H         3.676489        -0.005037        -2.254700
 H         4.491327         1.364846        -1.424363
 H         2.934370        -0.348386         0.079136
