19
Iteration:   824charge 0 multiplicity 1
 C         0.153624        -0.296816         0.114288
 C         1.052688         0.564341        -0.704022
 C         0.294418         1.390819        -1.761497
 C         1.179564         2.311584        -2.565705
 O         2.158753         3.153163        -1.920286
 C         2.685563         1.999025        -2.734478
 C         3.485061         0.960728        -1.967825
 C         2.519113         0.175121        -0.916753
 O         2.076645         1.073456         0.116111
 H        -0.281111         0.339196         0.982938
 H        -0.571384        -0.893243        -0.561190
 H         0.640674        -1.032579         0.657831
 H        -0.167578         0.662955        -2.396797
 H        -0.653813         1.933003        -1.427520
 H         0.630494         2.838445        -3.323324
 H         3.134835         2.417146        -3.576060
 H         4.013478         0.256296        -2.655993
 H         4.243986         1.431444        -1.370460
 H         2.851639        -0.694989        -0.415322
