19
Iteration:  3776charge 0 multiplicity 1
 C         0.298035        -0.593094        -0.288958
 C         1.034672         0.644230        -0.656939
 C         0.324322         1.598952        -1.701556
 C         1.308917         1.931030        -2.803882
 O         2.103316         3.012631        -2.509333
 C         2.776355         1.783726        -2.758286
 C         3.541450         1.265842        -1.439189
 C         2.536990         0.513549        -0.570806
 O         1.705177         1.193849         0.473116
 H         0.154829        -1.129725        -1.323816
 H         0.879672        -1.217999         0.375347
 H        -0.677382        -0.331546         0.129815
 H        -0.768195         1.284020        -1.992972
 H         0.047402         2.625431        -1.152208
 H         0.981479         1.719595        -3.869644
 H         3.464183         1.748949        -3.601278
 H         4.396231         0.571391        -1.577923
 H         3.921554         2.188785        -1.068370
 H         2.847190        -0.351431        -0.091553
