19
Iteration:  2824charge 0 multiplicity 1
 C         0.266466        -0.794104        -0.276595
 C         1.051383         0.548572        -0.641619
 C         0.407604         1.443666        -1.696951
 C         1.283142         1.996906        -2.744761
 O         2.235431         3.123035        -2.469210
 C         2.750828         1.765869        -2.749466
 C         3.418347         1.198620        -1.562690
 C         2.550569         0.670323        -0.511851
 O         1.669930         1.407161         0.434744
 H        -0.039232        -1.270420        -1.299016
 H         0.801186        -1.541414         0.258974
 H        -0.705817        -0.529792         0.257313
 H        -0.490084         0.793614        -2.121672
 H         0.027546         2.341266        -1.262300
 H         0.691726         2.297531        -3.724534
 H         3.290508         1.604982        -3.791251
 H         4.027684         0.301928        -1.783679
 H         4.219026         1.914860        -1.109380
 H         2.987863        -0.197337        -0.050038
