19
Iteration:   985charge 0 multiplicity 1
 C         0.070599        -0.517740        -0.191245
 C         1.033430         0.539821        -0.594577
 C         0.343781         1.583661        -1.475932
 C         1.234613         2.209856        -2.584764
 O         2.136417         3.280188        -2.267721
 C         2.675589         2.013521        -2.792023
 C         3.386460         0.917034        -1.906175
 C         2.552976         0.275648        -0.784074
 O         2.146526         1.051717         0.366895
 H        -0.993382        -0.167467        -0.192803
 H         0.288222        -1.336749        -0.913971
 H         0.267541        -0.862979         0.883812
 H        -0.552271         1.342019        -1.847007
 H         0.239663         2.422687        -0.862436
 H         0.590667         2.357168        -3.458077
 H         3.155739         2.231752        -3.826661
 H         3.599347         0.096089        -2.652576
 H         4.426745         1.272851        -1.616009
 H         2.929167        -0.779897        -0.535042
