19
Iteration:  1159charge 0 multiplicity 1
 C         0.283507        -0.529847         0.131689
 C         1.009394         0.444917        -0.771445
 C         0.388867         1.430806        -1.690539
 C         1.257061         2.304092        -2.670104
 O         2.247190         3.212086        -2.054099
 C         2.775986         2.028409        -2.705162
 C         3.376454         0.829171        -1.890323
 C         2.420156         0.334097        -0.816428
 O         1.851565         1.243771         0.114985
 H         0.881271        -1.439148         0.293214
 H         0.378967        -0.081710         1.134197
 H        -0.808670        -0.710584        -0.033546
 H        -0.503932         0.966546        -2.334798
 H        -0.331099         2.155678        -1.220887
 H         0.655378         2.887011        -3.386416
 H         3.295566         2.258382        -3.569589
 H         3.658546         0.039907        -2.599436
 H         4.239151         1.222429        -1.349601
 H         2.860195        -0.543814        -0.350886
