19
Iteration:  1403
 C         0.191015        -0.528882         0.024642
 C         1.010258         0.535508        -0.716461
 C         0.375655         1.446273        -1.725348
 C         1.299686         2.074782        -2.746318
 O         2.128774         3.125365        -2.248407
 C         2.830948         1.994493        -2.723940
 C         3.453993         1.069815        -1.707309
 C         2.442122         0.348878        -0.712011
 O         1.903110         1.285486         0.249162
 H         0.943519        -1.217071         0.513948
 H        -0.749580        -0.065198         0.616937
 H        -0.317562        -1.302192        -0.547939
 H        -0.362055         0.842310        -2.329784
 H        -0.174645         2.188643        -1.163446
 H         0.863446         2.348530        -3.665476
 H         3.306862         2.067122        -3.678055
 H         4.077454         0.351953        -2.181047
 H         3.977936         1.722628        -1.018886
 H         2.722162        -0.649968        -0.267490
