19
Iteration:  3762
 C         0.283763        -0.600638        -0.339732
 C         1.008939         0.636864        -0.649887
 C         0.414818         1.536546        -1.620075
 C         1.299490         1.835967        -2.829247
 O         2.179552         3.023706        -2.438270
 C         2.833985         1.736961        -2.746871
 C         3.429641         1.315648        -1.504574
 C         2.488655         0.528377        -0.579365
 O         1.686330         1.292955         0.435422
 H        -0.025713        -1.138559        -1.257624
 H         0.966559        -1.351822         0.254089
 H        -0.635605        -0.468787         0.333157
 H        -0.477230         1.118625        -1.952243
 H         0.363954         2.583437        -1.062144
 H         0.780140         2.080637        -3.742776
 H         3.233272         1.752757        -3.762268
 H         4.401217         0.837937        -1.723331
 H         3.607777         2.207052        -0.865564
 H         2.853872        -0.421595        -0.326147
