19
Iteration:  1678charge 0 multiplicity 1
 C         0.187676        -0.582738        -0.040014
 C         1.046652         0.540241        -0.595614
 C         0.485494         1.186016        -1.831925
 C         1.385076         2.020526        -2.783831
 O         2.096145         3.254832        -2.338328
 C         2.823979         1.986717        -2.720326
 C         3.374509         1.090664        -1.691726
 C         2.485788         0.456667        -0.546955
 O         1.778214         1.392966         0.328228
 H         0.149128        -0.576205         0.979742
 H        -0.933689        -0.438914        -0.259819
 H         0.374188        -1.484534        -0.572611
 H         0.083080         0.388495        -2.443893
 H        -0.417772         1.904360        -1.599205
 H         0.830059         2.319869        -3.607809
 H         3.533577         2.106870        -3.526191
 H         3.664574         0.182572        -2.295298
 H         4.358278         1.448374        -1.306626
 H         2.936158        -0.432344        -0.065375
