19
Iteration:  4750
 C         0.141051        -0.646668        -0.336401
 C         1.006701         0.594856        -0.595365
 C         0.351945         1.553284        -1.690764
 C         1.273776         1.984050        -2.821926
 O         2.213737         3.101002        -2.658618
 C         2.786710         1.787453        -2.704569
 C         3.471445         1.347576        -1.441964
 C         2.501128         0.539435        -0.474378
 O         1.871753         1.156337         0.547550
 H         0.363882        -1.511658        -1.071945
 H         0.301282        -1.355214         0.536573
 H        -0.859125        -0.483300        -0.601759
 H        -0.313284         0.896081        -2.083191
 H        -0.159403         2.426681        -1.211979
 H         0.617839         2.036917        -3.756161
 H         3.231865         1.530168        -3.625994
 H         4.384296         0.711682        -1.754395
 H         3.786350         2.327493        -1.013185
 H         2.928036        -0.466388        -0.240457
