19
Iteration:  3586charge 0 multiplicity 1
 C         0.275589        -0.420585         0.054326
 C         1.065029         0.573842        -0.718587
 C         0.452410         1.067853        -2.070040
 C         1.378142         2.124419        -2.784799
 O         2.064066         3.074441        -1.973356
 C         2.835519         1.990919        -2.582573
 C         3.423119         0.910398        -1.689077
 C         2.508434         0.538543        -0.590287
 O         1.660520         1.535892         0.081825
 H        -0.128843        -1.178628        -0.671422
 H         0.931214        -0.940591         0.811029
 H        -0.700324        -0.046241         0.550885
 H         0.331005         0.086446        -2.631239
 H        -0.536165         1.273082        -1.968831
 H         0.952672         2.508243        -3.697171
 H         3.474924         2.180308        -3.458359
 H         3.552864        -0.054899        -2.196026
 H         4.420064         1.269081        -1.427473
 H         2.881276        -0.123806         0.142881
