19
Iteration:  1741charge 0 multiplicity 1
 C         0.143860        -0.439661         0.073230
 C         1.035891         0.530338        -0.761379
 C         0.398058         1.161057        -1.999162
 C         1.335281         2.018640        -2.808063
 O         2.024891         3.027023        -2.074647
 C         2.779927         1.924647        -2.629883
 C         3.526101         1.115336        -1.585626
 C         2.542631         0.487126        -0.622517
 O         1.836678         1.458285         0.121855
 H         0.677751        -1.377565         0.230101
 H        -0.057111         0.140898         1.077139
 H        -0.785185        -0.662748        -0.403921
 H         0.198875         0.282561        -2.571020
 H        -0.513169         1.702867        -1.893128
 H         0.831264         2.447521        -3.801565
 H         3.470914         2.330700        -3.522483
 H         4.247151         0.465340        -2.102794
 H         4.136893         1.870249        -1.045287
 H         2.900040        -0.386371        -0.108002
