19
Iteration:  2473charge 0 multiplicity 1
 C         0.272218        -0.683897        -0.190666
 C         1.073800         0.576654        -0.620835
 C         0.441405         1.429482        -1.758021
 C         1.304450         1.937929        -2.840223
 O         2.119335         3.093094        -2.414189
 C         2.829476         1.897705        -2.694502
 C         3.436596         1.103476        -1.506594
 C         2.483488         0.568443        -0.509057
 O         1.677090         1.460130         0.309380
 H        -0.320842        -1.044476        -1.037809
 H         1.011483        -1.648063         0.040875
 H        -0.455763        -0.609722         0.659348
 H        -0.363180         0.880507        -2.207396
 H        -0.027311         2.318783        -1.295561
 H         1.030592         2.071860        -3.827202
 H         3.440176         1.919211        -3.628215
 H         3.696419         0.172964        -2.023243
 H         4.322773         1.597947        -0.974573
 H         2.857591        -0.308617         0.021731
