19
Iteration:  1562
 C         0.087088        -0.409379        -0.062083
 C         1.121329         0.590730        -0.584851
 C         0.491365         1.203219        -1.866339
 C         1.251989         2.080132        -2.828777
 O         2.077638         3.248108        -2.284742
 C         2.755066         2.037607        -2.732639
 C         3.372885         1.040999        -1.683731
 C         2.573453         0.418150        -0.579329
 O         1.916676         1.184772         0.392485
 H        -0.792078        -0.276267        -0.718070
 H         0.359575        -1.352927        -0.169902
 H        -0.082176        -0.339498         1.029479
 H         0.109944         0.297701        -2.431100
 H        -0.403581         1.588511        -1.490364
 H         0.788262         2.411916        -3.831069
 H         3.247313         2.007152        -3.800114
 H         3.868526         0.225867        -2.213397
 H         4.175861         1.644240        -1.256599
 H         3.022431        -0.514957        -0.168902
