19
Iteration:  2040charge 0 multiplicity 1
 C         0.108248        -0.403531         0.052542
 C         1.045420         0.507093        -0.761291
 C         0.466364         1.094276        -1.955306
 C         1.397787         1.944888        -2.735004
 O         2.040220         3.020809        -2.046095
 C         2.823819         2.025953        -2.616765
 C         3.498527         1.129664        -1.640101
 C         2.531339         0.452893        -0.574725
 O         1.768766         1.503166         0.006172
 H        -0.354542        -1.127937        -0.651547
 H         0.627997        -0.791464         0.888480
 H        -0.732193         0.095028         0.589374
 H        -0.043772         0.320787        -2.688693
 H        -0.360788         1.801652        -1.742480
 H         1.021404         2.286363        -3.810504
 H         3.351786         2.292961        -3.626142
 H         4.194296         0.366277        -2.005754
 H         4.060360         1.839792        -1.023551
 H         2.869691        -0.332691         0.088538
