19
Iteration:  2708charge 0 multiplicity 1
 C         0.184646        -0.539298        -0.025197
 C         1.035933         0.514826        -0.716576
 C         0.383314         1.282745        -1.886354
 C         1.302999         2.046222        -2.973216
 O         2.089459         3.220034        -2.496954
 C         2.835734         1.979218        -2.660294
 C         3.433243         1.164019        -1.451494
 C         2.490665         0.431591        -0.541859
 O         1.863502         1.248891         0.462716
 H        -0.224543        -1.261220        -0.850972
 H         0.708941        -1.128404         0.749490
 H        -0.715626        -0.028437         0.383420
 H        -0.097401         0.499649        -2.363699
 H        -0.389473         1.965625        -1.367322
 H         1.001477         2.084431        -4.013854
 H         3.487066         2.050344        -3.454715
 H         4.166546         0.543682        -1.988094
 H         3.994523         1.888506        -0.824496
 H         2.859791        -0.515896        -0.052238
