19
Iteration:  3570
 C         0.159342        -0.457255         0.022254
 C         1.080537         0.492384        -0.769282
 C         0.499852         1.115937        -2.037148
 C         1.334717         2.090017        -2.744062
 O         2.003469         3.059045        -1.981529
 C         2.776342         1.887503        -2.685369
 C         3.460485         0.987026        -1.644622
 C         2.543762         0.501182        -0.494669
 O         1.774913         1.562862         0.030133
 H        -0.271643        -1.271634        -0.597304
 H         0.661158        -0.890471         0.867762
 H        -0.611204         0.139641         0.411043
 H         0.231696         0.506411        -2.860906
 H        -0.383242         1.879240        -1.685527
 H         0.998207         2.502288        -3.724238
 H         3.443298         2.420519        -3.355110
 H         4.038810         0.210486        -2.195142
 H         4.231245         1.550149        -1.041060
 H         2.977923        -0.248350         0.249716
