19
Iteration:   581charge 0 multiplicity 1
 C         0.260628        -0.536511        -0.064216
 C         1.027219         0.605598        -0.624172
 C         0.324037         1.454505        -1.658906
 C         1.295494         2.305466        -2.545959
 O         2.324740         3.107640        -1.933331
 C         2.688242         2.003432        -2.822595
 C         3.189310         0.757888        -2.056066
 C         2.510280         0.429886        -0.783972
 O         1.977339         1.316689         0.249271
 H        -0.819432        -0.424597         0.202735
 H         0.236360        -1.284627        -0.840020
 H         0.936955        -1.013043         0.714607
 H        -0.082715         0.685695        -2.505034
 H        -0.754221         1.820263        -1.429217
 H         0.686588         2.847396        -3.268272
 H         3.186178         2.371034        -3.693722
 H         3.083762        -0.146779        -2.774348
 H         4.268923         0.776587        -1.834106
 H         2.931960        -0.505223        -0.328119
