19
Iteration:  1905charge 0 multiplicity 1
 C         0.112905        -0.531230        -0.133675
 C         1.045156         0.601978        -0.637741
 C         0.422097         1.370184        -1.861517
 C         1.349568         1.873327        -2.843975
 O         2.036194         3.135286        -2.512495
 C         2.826509         1.944660        -2.641304
 C         3.481532         1.230542        -1.505891
 C         2.538911         0.553751        -0.559745
 O         1.840541         1.244966         0.470367
 H         0.019455        -1.156935        -1.013277
 H         0.521336        -1.317473         0.713890
 H        -0.911530        -0.287640         0.155752
 H        -0.238884         0.436252        -2.222145
 H        -0.244879         2.170684        -1.570361
 H         0.996873         1.919521        -3.915523
 H         3.434694         2.033856        -3.508450
 H         3.944634         0.332517        -1.952198
 H         4.251067         1.792108        -0.960185
 H         2.916008        -0.369980        -0.232462
