19
Iteration:  2001charge 0 multiplicity 1
 C         0.243873        -0.543865        -0.118792
 C         1.059397         0.609343        -0.692027
 C         0.481004         1.217443        -2.009259
 C         1.344202         1.997141        -2.870350
 O         2.057110         3.120618        -2.224580
 C         2.809995         1.978833        -2.710092
 C         3.339142         0.956707        -1.620701
 C         2.554558         0.573686        -0.390223
 O         1.751247         1.492562         0.377769
 H         0.190378        -1.460926        -0.751226
 H         0.786560        -0.974981         0.775624
 H        -0.789363        -0.212477         0.110146
 H         0.143110         0.391488        -2.553957
 H        -0.445437         1.779705        -1.702283
 H         0.951458         2.216235        -3.797216
 H         3.429147         2.121909        -3.582836
 H         3.527431         0.028174        -2.201040
 H         4.345358         1.342682        -1.337366
 H         2.974266        -0.350461         0.146899
