19
Iteration:  1498charge 0 multiplicity 1
 C         0.350751        -0.445573         0.161651
 C         1.024092         0.483908        -0.819808
 C         0.317652         1.307762        -1.918838
 C         1.339606         2.195144        -2.713841
 O         2.057277         3.096269        -2.039815
 C         2.833974         1.954189        -2.586148
 C         3.436882         0.923988        -1.688519
 C         2.504251         0.424445        -0.702682
 O         1.771032         1.399309         0.026987
 H         0.062769        -1.414940        -0.393611
 H         1.018699        -0.799685         0.999691
 H        -0.566616        -0.041724         0.443831
 H        -0.307783         0.730556        -2.612961
 H        -0.421584         2.070727        -1.381705
 H         0.991976         2.524567        -3.791172
 H         3.421347         2.191082        -3.596222
 H         3.711303         0.046940        -2.360740
 H         4.329388         1.236007        -1.093933
 H         2.854178        -0.445759        -0.178278
