19
Iteration:  2857charge 0 multiplicity 1
 C         0.197846        -0.555766        -0.147667
 C         1.112769         0.543642        -0.725135
 C         0.348131         1.357050        -1.789692
 C         1.301852         1.953268        -2.744536
 O         2.086554         3.136212        -2.359931
 C         2.766241         1.863202        -2.622458
 C         3.471040         1.187581        -1.490375
 C         2.578530         0.486441        -0.565514
 O         1.782143         1.355618         0.220983
 H         0.024209        -1.322435        -0.992389
 H         0.655056        -1.097948         0.621198
 H        -0.772161        -0.132865         0.262335
 H        -0.327005         0.622539        -2.338773
 H        -0.294232         2.114101        -1.441103
 H         0.803945         2.158658        -3.798118
 H         3.385933         1.869992        -3.613438
 H         4.180729         0.429261        -1.856261
 H         4.074582         1.941664        -0.890977
 H         3.088528        -0.325079        -0.093980
