19
Iteration:  2411
 C         0.100384        -0.532742         0.068106
 C         1.048670         0.425091        -0.720118
 C         0.412745         1.245199        -1.905470
 C         1.394251         2.009180        -2.832140
 O         2.137430         3.254250        -2.468515
 C         2.847572         2.012348        -2.681494
 C         3.373976         1.195387        -1.506574
 C         2.536989         0.466412        -0.547035
 O         1.793369         1.267650         0.334399
 H        -0.526856        -1.062232        -0.706149
 H         0.547644        -1.247795         0.651128
 H        -0.367324         0.149856         0.758972
 H        -0.094758         0.494291        -2.562971
 H        -0.489430         1.927568        -1.609613
 H         1.026301         1.966750        -3.913510
 H         3.347630         1.948202        -3.649262
 H         4.177014         0.501737        -1.877377
 H         3.907142         1.781948        -0.741602
 H         3.043112        -0.506426        -0.098950
