19
Iteration:  1635
 C         0.308926        -0.615775        -0.150645
 C         1.051236         0.557986        -0.686142
 C         0.384446         1.388947        -1.788936
 C         1.264633         2.076334        -2.752658
 O         2.172384         3.105418        -2.230117
 C         2.721577         1.753333        -2.783509
 C         3.471710         1.086045        -1.604960
 C         2.505914         0.587318        -0.537863
 O         1.755598         1.394473         0.263076
 H        -0.288813        -0.298945         0.716781
 H        -0.506879        -1.020067        -0.917178
 H         0.973888        -1.587364         0.123735
 H        -0.380120         0.791881        -2.363113
 H        -0.285102         2.241500        -1.337912
 H         0.804768         2.294153        -3.651022
 H         3.212430         1.923938        -3.657439
 H         4.118365         0.251582        -1.954535
 H         4.139055         1.878546        -1.188957
 H         2.900847        -0.330647        -0.026947
