19
Iteration:  2389
 C         0.067774        -0.545517         0.089977
 C         0.967076         0.504819        -0.601836
 C         0.524132         1.219637        -1.884497
 C         1.406963         2.045863        -2.847674
 O         2.060355         3.238501        -2.423951
 C         2.874181         2.018654        -2.661106
 C         3.524486         1.166335        -1.582800
 C         2.491569         0.415420        -0.621348
 O         1.730034         1.282228         0.256435
 H        -0.118358        -1.482256        -0.518017
 H         0.642947        -0.813226         0.920997
 H        -0.750817        -0.047795         0.608826
 H         0.009132         0.421270        -2.498683
 H        -0.335706         1.978768        -1.621175
 H         0.904861         2.067774        -3.887572
 H         3.542677         2.332124        -3.465182
 H         4.093733         0.367543        -2.140507
 H         4.272737         1.550966        -0.881541
 H         2.850839        -0.454378         0.079696
