19
Iteration:  4398
 C         0.217683        -0.595802         0.078614
 C         0.996893         0.498736        -0.713879
 C         0.466350         1.231349        -1.933380
 C         1.419421         2.038074        -2.777454
 O         2.133049         3.256802        -2.338352
 C         2.884044         1.989707        -2.674816
 C         3.396260         1.102261        -1.549349
 C         2.475924         0.441322        -0.624811
 O         1.650425         1.366569         0.244102
 H        -0.526474        -1.269123        -0.401744
 H         0.915351        -1.331657         0.638035
 H        -0.418398        -0.113220         0.794931
 H        -0.000814         0.464098        -2.556483
 H        -0.196638         2.057350        -1.656266
 H         0.909416         2.189803        -3.712567
 H         3.562989         2.287800        -3.450740
 H         3.967889         0.335012        -2.150858
 H         4.173726         1.575174        -0.949015
 H         2.830038        -0.478971        -0.099141
