19
Iteration:  1737
 C         0.192488        -0.402782         0.074857
 C         1.020532         0.518333        -0.774971
 C         0.410995         1.193614        -1.980939
 C         1.332484         2.008124        -2.818076
 O         2.018790         3.013652        -2.064319
 C         2.778546         1.918968        -2.615163
 C         3.535189         1.115267        -1.600677
 C         2.522977         0.491346        -0.635755
 O         1.837652         1.447209         0.118485
 H         0.670965        -1.429157         0.201044
 H        -0.061580         0.227938         0.846546
 H        -0.806419        -0.756701        -0.418983
 H         0.131561         0.280845        -2.686335
 H        -0.553452         1.715072        -1.856792
 H         0.909216         2.357150        -3.709771
 H         3.312196         2.227056        -3.409757
 H         4.297149         0.478716        -2.053829
 H         3.999537         1.893016        -0.975633
 H         2.914729        -0.333256         0.018537
