19
Iteration:  3360charge 0 multiplicity 1
 C         0.145732        -0.550840        -0.350449
 C         1.119532         0.582228        -0.572781
 C         0.453494         1.637319        -1.628997
 C         1.318140         1.880119        -2.878962
 O         2.237892         3.127487        -2.858856
 C         2.711548         1.800784        -2.746251
 C         3.239597         1.537014        -1.268030
 C         2.612229         0.364824        -0.536268
 O         1.812890         0.966695         0.579054
 H        -0.018916        -1.185523        -1.250448
 H         0.584748        -1.205881         0.475263
 H        -0.825911        -0.110034        -0.006977
 H        -0.495813         1.320919        -1.713426
 H         0.533219         2.630978        -1.031589
 H         0.738059         1.498264        -3.755333
 H         3.337144         1.508894        -3.591023
 H         4.382484         1.436106        -1.231600
 H         2.819888         2.332393        -0.644662
 H         2.973240        -0.613662        -0.390842
