19
Iteration:  4959
 C         0.023753        -0.609352        -0.005306
 C         1.053162         0.497561        -0.621652
 C         0.446915         1.144381        -1.882722
 C         1.370669         2.022813        -2.719122
 O         2.177614         3.176213        -2.212908
 C         2.870281         1.993490        -2.694938
 C         3.488823         1.098819        -1.713456
 C         2.565457         0.587648        -0.586750
 O         1.665528         1.410814         0.209561
 H        -0.049267        -1.494448        -0.712542
 H         0.475423        -0.936115         0.899528
 H        -0.851225        -0.026632         0.029698
 H        -0.045073         0.486433        -2.654868
 H        -0.397640         1.806059        -1.615027
 H         0.879714         2.306566        -3.613532
 H         3.374927         2.114107        -3.648389
 H         3.859711         0.164836        -2.163284
 H         4.257854         1.614700        -1.149253
 H         3.212576        -0.096423        -0.015073
