19
Iteration:  2488
 C         0.338987        -0.679634        -0.164747
 C         1.000143         0.539064        -0.668469
 C         0.372962         1.410967        -1.752156
 C         1.434652         2.042955        -2.779434
 O         2.119591         3.214250        -2.505866
 C         2.825629         1.863640        -2.659363
 C         3.423783         0.999885        -1.636103
 C         2.524560         0.565029        -0.422550
 O         1.601002         1.395198         0.349653
 H        -0.299350        -1.223359        -0.982541
 H         1.051853        -1.266703         0.306174
 H        -0.444533        -0.370328         0.550486
 H        -0.280858         0.770640        -2.354228
 H        -0.242098         2.258597        -1.224640
 H         0.787868         1.973979        -3.731990
 H         3.450801         1.878547        -3.538188
 H         4.030542         0.129587        -2.044819
 H         4.319974         1.525797        -1.250041
 H         3.076697        -0.171547         0.371899
