19
Iteration:  1846charge 0 multiplicity 1
 C         0.237541        -0.576978        -0.015228
 C         1.045628         0.559396        -0.760575
 C         0.298569         1.290473        -1.849297
 C         1.343008         1.959453        -2.810988
 O         2.174392         3.040497        -2.294760
 C         2.831719         1.889839        -2.697332
 C         3.530565         1.216435        -1.506964
 C         2.536305         0.526088        -0.581472
 O         1.651153         1.402153         0.206106
 H        -0.652290        -1.110956        -0.618858
 H         0.883673        -1.345827         0.313469
 H        -0.312204        -0.109939         0.925177
 H        -0.459039         0.562506        -2.336289
 H        -0.391249         2.098126        -1.364401
 H         1.047484         2.117864        -3.781723
 H         3.390494         2.090577        -3.603988
 H         4.438564         0.603214        -1.804826
 H         3.961489         2.128428        -1.029195
 H         3.038445        -0.344449        -0.012923
