19
Iteration:  1015
 C         0.108288        -0.420746        -0.119816
 C         1.071275         0.558513        -0.662273
 C         0.452750         1.602547        -1.539712
 C         1.185003         2.304002        -2.583394
 O         2.216603         3.223556        -2.270695
 C         2.525005         1.828527        -2.838298
 C         3.392546         1.094687        -1.776505
 C         2.537220         0.263276        -0.835270
 O         2.114453         0.901317         0.361604
 H        -0.640860         0.043382         0.432304
 H        -0.266202        -1.014528        -0.908624
 H         0.647269        -1.133453         0.678179
 H        -0.453033         1.008498        -2.128569
 H        -0.205440         2.376834        -0.995833
 H         0.574505         2.521301        -3.512466
 H         2.902937         1.875638        -3.789612
 H         4.164282         0.491281        -2.268720
 H         3.889230         1.971391        -1.291526
 H         2.877226        -0.769068        -0.789186
