19
Iteration:  1582
 C         0.159865        -0.518468        -0.048936
 C         1.087304         0.527400        -0.690711
 C         0.420149         1.367179        -1.821182
 C         1.297745         2.103289        -2.818184
 O         2.050294         3.212638        -2.375348
 C         2.771169         1.963669        -2.653687
 C         3.401873         1.089513        -1.631970
 C         2.535472         0.354022        -0.595943
 O         1.887951         1.273207         0.368912
 H        -0.919116        -0.335401        -0.248975
 H         0.393767        -1.575428        -0.277162
 H         0.513394        -0.541798         1.112418
 H        -0.110535         0.582613        -2.469373
 H        -0.337648         1.992692        -1.449548
 H         0.826529         2.223189        -3.796419
 H         3.443224         2.062074        -3.475168
 H         3.867521         0.378792        -2.302487
 H         4.260379         1.525727        -1.123686
 H         3.003466        -0.569506        -0.126389
