19
Iteration:  1132
 C         0.180515        -0.579207        -0.040657
 C         1.037216         0.553246        -0.629550
 C         0.342206         1.456154        -1.679717
 C         1.211380         2.297097        -2.564646
 O         2.353597         3.100683        -2.102231
 C         2.615830         1.881994        -2.740941
 C         3.397616         1.006840        -1.876475
 C         2.504750         0.391101        -0.803267
 O         1.947678         1.261997         0.200802
 H         0.893081        -1.403123         0.181098
 H        -0.426783        -0.307264         0.862309
 H        -0.626228        -0.900898        -0.822327
 H        -0.292549         0.899875        -2.309599
 H        -0.423066         2.115395        -1.225049
 H         0.664886         2.787512        -3.445644
 H         2.971694         1.948903        -3.861691
 H         3.707394         0.143564        -2.533830
 H         4.302230         1.469497        -1.452000
 H         2.984356        -0.492798        -0.327462
