19
Iteration:  2434
 C         0.160372        -0.490994        -0.103399
 C         1.085803         0.616388        -0.700726
 C         0.419615         1.331865        -1.824939
 C         1.324874         1.982626        -2.833127
 O         2.068398         3.064593        -2.378764
 C         2.813577         1.831191        -2.690008
 C         3.512801         1.262610        -1.456046
 C         2.609365         0.459587        -0.570395
 O         1.695913         1.300755         0.330539
 H        -0.487675        -0.745643        -0.981592
 H         0.629578        -1.352829         0.105687
 H        -0.252024        -0.108575         0.820125
 H        -0.177987         0.529089        -2.387512
 H        -0.426857         2.010483        -1.463223
 H         0.755856         2.151512        -3.846231
 H         3.336714         1.825916        -3.643547
 H         4.316866         0.578124        -1.855836
 H         4.033551         2.087581        -0.970701
 H         2.961127        -0.591104        -0.247435
