19
Iteration:  3218charge 0 multiplicity 1
 C         0.236609        -0.661721        -0.359458
 C         1.058425         0.558418        -0.639788
 C         0.558662         1.781399        -1.535867
 C         1.248674         1.918646        -2.918658
 O         2.188705         3.036856        -2.862900
 C         2.734948         1.766891        -2.730660
 C         3.287199         1.562229        -1.259000
 C         2.529044         0.427912        -0.532208
 O         1.769018         0.977442         0.559699
 H         0.326405        -1.461823        -1.155395
 H         0.521227        -1.094452         0.636439
 H        -0.888241        -0.407601        -0.368920
 H        -0.472256         1.531541        -1.589110
 H         0.782441         2.786550        -0.969863
 H         0.697328         1.799883        -3.872617
 H         3.478246         1.388898        -3.361669
 H         4.341251         1.184331        -1.275602
 H         3.093609         2.357595        -0.610849
 H         2.990299        -0.423776        -0.274338
