19
Iteration:  1858
 C         0.176523        -0.601862        -0.025816
 C         1.036415         0.463207        -0.718023
 C         0.443295         1.297934        -1.870048
 C         1.322035         2.007976        -2.892567
 O         2.143345         3.150028        -2.400487
 C         2.797757         1.892118        -2.670978
 C         3.481420         1.267955        -1.494288
 C         2.528589         0.512034        -0.505250
 O         1.712043         1.343349         0.263761
 H        -0.723315        -1.136989        -0.559651
 H         0.826010        -1.361888         0.424926
 H        -0.201798         0.000121         0.914857
 H        -0.354247         0.616614        -2.424865
 H        -0.120978         2.140469        -1.318308
 H         0.987688         2.094489        -3.850907
 H         3.377349         1.809364        -3.548848
 H         4.114950         0.457082        -1.940539
 H         4.117042         1.947927        -0.879602
 H         2.893443        -0.380844         0.097592
