19
Iteration:  1960charge 0 multiplicity 1
 C         0.219582        -0.695400        -0.074950
 C         1.006612         0.459670        -0.725946
 C         0.277694         1.370222        -1.811509
 C         1.361748         2.001695        -2.704885
 O         2.216410         3.190155        -2.412640
 C         2.812293         1.874380        -2.752950
 C         3.527108         1.172307        -1.559819
 C         2.472659         0.501549        -0.499010
 O         1.705906         1.446743         0.263464
 H         0.488711        -1.680892        -0.366091
 H         0.702402        -0.718416         1.054092
 H        -0.808056        -0.432469        -0.124918
 H        -0.247065         0.549906        -2.553181
 H        -0.423235         2.088847        -1.410628
 H         0.886048         2.233034        -3.659697
 H         3.258389         1.836347        -3.701620
 H         4.099511         0.290868        -1.853239
 H         4.269719         1.762318        -1.011335
 H         2.918323        -0.175095         0.168098
