19
Iteration:  1196
 C         0.119750        -0.351668         0.026621
 C         1.036957         0.594409        -0.681695
 C         0.395649         1.332618        -1.781149
 C         1.247335         2.199855        -2.672582
 O         2.046404         3.147331        -1.936146
 C         2.726157         2.069180        -2.650024
 C         3.395080         0.818738        -1.944102
 C         2.491762         0.314711        -0.851751
 O         2.127870         1.235535         0.172843
 H         0.283191        -1.414933        -0.237303
 H         0.247967        -0.129446         1.098571
 H        -0.877364        -0.131160        -0.153818
 H        -0.024859         0.540006        -2.394840
 H        -0.361106         1.952219        -1.347717
 H         0.721784         2.582532        -3.516866
 H         3.375315         2.510060        -3.500760
 H         3.699327         0.036345        -2.735866
 H         4.387781         0.992495        -1.392810
 H         2.851113        -0.647752        -0.330553
