19
Iteration:  3686charge 0 multiplicity 1
 C         0.127546        -0.598731        -0.089197
 C         0.977818         0.574960        -0.611433
 C         0.419672         1.391381        -1.893418
 C         1.366836         1.928840        -2.922501
 O         2.077116         3.149104        -2.364135
 C         2.845632         1.925896        -2.748196
 C         3.495105         1.194797        -1.509210
 C         2.525716         0.444930        -0.563053
 O         1.807907         1.270411         0.389433
 H         0.036730        -1.391395        -0.840486
 H         0.553857        -1.022843         0.918217
 H        -0.924582        -0.233791         0.161526
 H        -0.511872         0.894768        -2.279560
 H         0.030975         2.484864        -1.394311
 H         0.897521         2.013126        -3.893608
 H         3.508774         2.213564        -3.585047
 H         4.337380         0.560632        -1.839467
 H         3.893317         1.960418        -0.845924
 H         2.953841        -0.391200        -0.151528
