19
Iteration:   669
 C         0.117672        -0.382459         0.045884
 C         1.008040         0.574978        -0.637920
 C         0.444998         1.637222        -1.629537
 C         1.266628         2.213845        -2.710246
 O         2.018989         3.277675        -2.228092
 C         2.763160         2.000760        -2.748517
 C         3.378700         1.057293        -1.770588
 C         2.439296         0.139038        -0.883311
 O         2.138092         0.880249         0.281265
 H        -0.404999        -0.034695         1.057041
 H        -0.589124        -0.902395        -0.651344
 H         0.916044        -1.275039         0.343828
 H        -0.105953         0.919219        -2.214627
 H        -0.123460         2.499518        -1.158948
 H         0.713761         2.498217        -3.607964
 H         3.370114         2.085938        -3.628403
 H         3.937122         0.343470        -2.485613
 H         4.106470         1.534525        -1.114560
 H         2.686932        -0.939746        -0.765095
