19
Iteration:  4413
 C         0.219125        -0.594313        -0.044412
 C         1.002453         0.472147        -0.704016
 C         0.385867         1.342745        -1.904533
 C         1.378686         2.094834        -2.862810
 O         2.128770         3.179652        -2.387413
 C         2.828670         1.962431        -2.648726
 C         3.452434         1.107374        -1.513406
 C         2.488679         0.502460        -0.465817
 O         1.724316         1.312111         0.303266
 H        -0.276915        -1.157772        -0.877447
 H         0.976609        -1.266305         0.440756
 H        -0.484596        -0.146342         0.692049
 H        -0.210350         0.620497        -2.631698
 H        -0.366383         1.810290        -1.357720
 H         1.089801         2.210109        -3.956460
 H         3.348335         1.813951        -3.607232
 H         3.947179         0.291946        -1.983853
 H         4.205625         1.745656        -1.072195
 H         3.082315        -0.285802         0.037636
