19
Iteration:   703
 C         0.050104        -0.479032        -0.140406
 C         1.110639         0.427439        -0.702270
 C         0.358398         1.559846        -1.418434
 C         1.194363         2.219184        -2.557213
 O         2.282916         3.232040        -2.299578
 C         2.642821         1.988348        -2.823696
 C         3.404218         1.071740        -1.872009
 C         2.605756         0.275874        -0.770732
 O         2.005232         1.040340         0.311019
 H        -0.842490         0.074690         0.445286
 H        -0.552322        -0.967823        -1.026002
 H         0.494968        -1.277603         0.534941
 H        -0.539400         1.245459        -1.920538
 H        -0.141770         2.235781        -0.666624
 H         0.456022         2.533953        -3.264656
 H         2.958236         2.040289        -3.819769
 H         3.804788         0.222209        -2.526537
 H         4.326881         1.534006        -1.496594
 H         3.083489        -0.616282        -0.412335
