19
Iteration:  4228charge 0 multiplicity 1
 C         0.230871        -0.620249        -0.324475
 C         1.069277         0.613258        -0.655192
 C         0.427501         1.357885        -1.718717
 C         1.381215         1.941138        -2.798888
 O         2.094580         3.064029        -2.369976
 C         2.809793         1.834146        -2.702377
 C         3.446960         1.150156        -1.636660
 C         2.534159         0.587106        -0.474353
 O         1.666470         1.419830         0.441940
 H        -0.132068        -1.047102        -1.264334
 H         0.612597        -1.446895         0.337232
 H        -0.739952        -0.261860         0.061643
 H        -0.157131         0.692300        -2.239220
 H        -0.223737         2.300886        -1.408317
 H         0.872406         1.908590        -3.785635
 H         3.469530         2.005828        -3.531987
 H         4.119907         0.286842        -2.029934
 H         4.202324         1.769276        -1.010935
 H         3.034362        -0.157362         0.066601
