19
Iteration:   571charge 0 multiplicity 1
 C         0.352075        -0.597325        -0.043309
 C         1.008480         0.655715        -0.589609
 C         0.350700         1.442457        -1.740235
 C         1.250980         2.416062        -2.593510
 O         2.289018         3.079995        -1.918473
 C         2.711689         1.968001        -2.783638
 C         3.230690         0.739307        -2.110673
 C         2.403216         0.380050        -0.785500
 O         1.963257         1.322676         0.267407
 H        -0.732208        -0.435170         0.249570
 H         0.470853        -1.329766        -0.806626
 H         0.756299        -0.870560         0.900595
 H        -0.013826         0.558382        -2.459053
 H        -0.289514         2.207981        -1.192709
 H         0.765977         3.058630        -3.340403
 H         3.201029         2.298276        -3.654101
 H         3.034738        -0.201221        -2.725306
 H         4.294868         0.877321        -1.888658
 H         2.826342        -0.502748        -0.283069
