19
Iteration:  3645
 C         0.175278        -0.450680        -0.061296
 C         1.098565         0.485026        -0.790108
 C         0.372262         1.170393        -1.924502
 C         1.318679         2.036751        -2.754260
 O         2.119642         3.151228        -2.170120
 C         2.769158         1.934181        -2.632318
 C         3.500614         1.041596        -1.596655
 C         2.542087         0.493591        -0.506304
 O         1.741541         1.464827         0.178566
 H         0.098288        -1.362435        -0.653604
 H         0.518983        -0.766766         0.925837
 H        -0.789541        -0.021292         0.035840
 H         0.003902         0.401915        -2.657912
 H        -0.340722         1.740375        -1.556696
 H         1.100289         2.408170        -3.780367
 H         3.223953         1.963807        -3.639966
 H         3.952597         0.154232        -2.078167
 H         4.302851         1.615090        -1.137949
 H         2.865466        -0.362805         0.207515
