19
Iteration:  3453charge 0 multiplicity 1
 C         0.247668        -0.715986        -0.417095
 C         1.063435         0.607078        -0.623739
 C         0.380263         1.634409        -1.581753
 C         1.222858         1.898173        -2.806495
 O         2.273614         3.034238        -2.542953
 C         2.701911         1.747039        -2.775945
 C         3.442565         1.328178        -1.449739
 C         2.551691         0.544616        -0.496813
 O         1.704152         1.266510         0.464467
 H         0.098212        -1.116705        -1.499228
 H         0.917062        -1.400214         0.086159
 H        -0.791473        -0.604464         0.094106
 H        -0.701207         1.280670        -1.879643
 H         0.464301         2.519183        -1.088192
 H         0.881779         1.663668        -3.765342
 H         3.214033         1.568094        -3.734928
 H         4.375050         0.859386        -1.619215
 H         3.595203         2.333383        -1.028163
 H         3.013624        -0.291599         0.122071
