19
Iteration:   479charge 0 multiplicity 1
 C         0.154146        -0.337914        -0.022435
 C         1.092940         0.600047        -0.675269
 C         0.369693         1.535611        -1.657427
 C         1.198837         2.273953        -2.725771
 O         2.143772         3.221326        -2.136717
 C         2.635855         2.008201        -2.726746
 C         3.380741         0.982130        -1.901205
 C         2.491854         0.196863        -0.915287
 O         2.132294         0.896782         0.443605
 H        -0.488221         0.235264         0.529934
 H        -0.447955        -0.918961        -0.693000
 H         0.684936        -0.924087         0.816897
 H        -0.087781         0.814788        -2.291281
 H        -0.313849         2.190321        -1.116143
 H         0.617540         2.506988        -3.627535
 H         3.013254         2.149856        -3.764663
 H         3.838648         0.401537        -2.737370
 H         4.136309         1.517320        -1.300266
 H         2.790542        -0.829049        -0.615070
