19
Iteration:   501
 C         0.005474        -0.374005         0.015861
 C         1.058125         0.520215        -0.597843
 C         0.370741         1.418290        -1.640103
 C         1.231251         2.303938        -2.591501
 O         2.204789         3.188327        -2.070513
 C         2.664508         2.020518        -2.803925
 C         3.337581         0.992356        -1.914232
 C         2.539653         0.257129        -0.868166
 O         2.171111         1.012619         0.177549
 H        -0.883253         0.123450         0.173124
 H        -0.178667        -1.256661        -0.598500
 H         0.334647        -0.651984         1.112740
 H        -0.180429         0.820916        -2.315588
 H        -0.184946         2.147324        -1.042957
 H         0.591693         2.662774        -3.407990
 H         3.149922         2.329227        -3.767909
 H         3.884382         0.309824        -2.612987
 H         4.068294         1.543494        -1.270502
 H         2.948073        -0.764005        -0.567560
