19
Iteration:   570charge 0 multiplicity 1
 C         0.354364        -0.602697        -0.045836
 C         1.012507         0.661944        -0.588003
 C         0.358898         1.444179        -1.748738
 C         1.246092         2.423355        -2.595297
 O         2.287304         3.076781        -1.916777
 C         2.707505         1.968424        -2.776933
 C         3.232713         0.740032        -2.110157
 C         2.394110         0.378000        -0.785440
 O         1.961509         1.322838         0.266189
 H        -0.706424        -0.434789         0.243898
 H         0.477697        -1.349100        -0.789333
 H         0.770138        -0.875606         0.983212
 H        -0.052420         0.559521        -2.460848
 H        -0.271135         2.232595        -1.186594
 H         0.776479         3.059631        -3.354161
 H         3.219460         2.277068        -3.670767
 H         3.044532        -0.216478        -2.738886
 H         4.304142         0.880611        -1.905000
 H         2.826582        -0.530775        -0.282013
