19
Iteration:  4538charge 0 multiplicity 1
 C         0.088407        -0.657049        -0.357595
 C         1.032235         0.538945        -0.634537
 C         0.425744         1.629242        -1.559251
 C         1.315644         1.862312        -2.795681
 O         2.128977         3.056549        -2.662883
 C         2.810114         1.816381        -2.731750
 C         3.397647         1.477687        -1.360607
 C         2.548154         0.473285        -0.614162
 O         1.872842         1.112395         0.483535
 H         0.354184        -1.624101        -0.731152
 H         0.006112        -0.570506         0.698165
 H        -0.865374        -0.258143        -0.819193
 H        -0.413832         1.152511        -1.923342
 H         0.275970         2.687150        -1.132887
 H         0.948755         1.789878        -3.784623
 H         3.386955         1.480864        -3.621344
 H         4.490727         1.184322        -1.546029
 H         3.430995         2.392414        -0.680602
 H         2.980268        -0.490189        -0.338082
