19
Iteration:  3201
 C         0.154419        -0.626390        -0.356451
 C         1.064649         0.527824        -0.668865
 C         0.605159         1.651628        -1.544556
 C         1.335595         1.883214        -2.778612
 O         2.136047         3.159758        -2.886698
 C         2.819731         1.804064        -2.747375
 C         3.286520         1.467751        -1.363012
 C         2.563284         0.487706        -0.497602
 O         1.693202         0.985163         0.603054
 H         0.259380        -1.477611        -1.003177
 H         0.506024        -1.126482         0.585495
 H        -0.855818        -0.276969        -0.269323
 H        -0.556266         1.706829        -1.606740
 H         0.930222         2.419759        -0.866441
 H         0.893343         1.581632        -3.720658
 H         3.267797         1.408622        -3.745452
 H         4.362013         1.319257        -1.426700
 H         3.055983         2.557843        -1.028087
 H         2.952147        -0.642704        -0.299650
