19
Iteration:   115
 C         0.188331        -0.439038        -0.051219
 C         1.085106         0.632325        -0.686238
 C         0.334827         1.596810        -1.576348
 C         1.175409         2.254755        -2.702434
 O         2.218596         3.194409        -2.308057
 C         2.643234         1.938412        -2.737612
 C         3.371961         1.055682        -1.692435
 C         2.465170         0.236389        -0.880559
 O         2.081200         0.919053         0.341701
 H         0.879937        -1.311239         0.341859
 H        -0.499764        -0.129293         0.798176
 H        -0.555822        -0.787821        -0.819138
 H        -0.492878         1.028787        -2.050372
 H        -0.113997         2.414443        -0.904726
 H         0.692327         2.609823        -3.679903
 H         3.224833         1.839170        -3.694673
 H         4.168144         0.436891        -2.128040
 H         3.952966         1.724240        -1.016364
 H         2.826286        -0.803215        -0.850575
