19
Iteration:   509
 C         0.016831        -0.412578         0.045752
 C         1.020420         0.503800        -0.617903
 C         0.410835         1.446087        -1.592933
 C         1.237222         2.280583        -2.573907
 O         2.223336         3.200351        -2.029996
 C         2.663861         2.010372        -2.759643
 C         3.374778         0.962710        -1.968376
 C         2.563848         0.197699        -0.931261
 O         2.107867         1.119020         0.143769
 H        -1.007353         0.164458         0.000062
 H        -0.144020        -1.410958        -0.538359
 H         0.256672        -0.651680         1.101999
 H        -0.171534         0.824616        -2.243850
 H        -0.277433         2.112387        -1.030663
 H         0.634188         2.636957        -3.441453
 H         3.045252         2.219751        -3.828412
 H         3.872062         0.333815        -2.673086
 H         4.079352         1.581393        -1.348118
 H         3.013233        -0.641563        -0.422683
