19
Iteration:  4258
 C         0.249190        -0.640565        -0.069949
 C         0.999048         0.518050        -0.782591
 C         0.300475         1.325286        -1.856738
 C         1.315391         2.059907        -2.749648
 O         2.196149         3.071745        -2.216757
 C         2.820476         1.834260        -2.673509
 C         3.466359         1.158234        -1.537390
 C         2.510291         0.548637        -0.524758
 O         1.740993         1.445808         0.148027
 H         0.166282        -1.459299        -0.832307
 H         0.701139        -0.949079         0.948134
 H        -0.725983        -0.350253         0.025397
 H        -0.295863         0.620038        -2.467720
 H        -0.434866         2.017532        -1.424151
 H         1.027520         2.299271        -3.819619
 H         3.441632         2.031718        -3.520049
 H         4.173884         0.456509        -1.998838
 H         4.100825         1.833077        -0.939215
 H         2.951025        -0.273278         0.073581
