19
Iteration:  3818charge 0 multiplicity 1
 C         0.126311        -0.647827        -0.178071
 C         1.078829         0.491100        -0.506204
 C         0.454685         1.402328        -1.687359
 C         1.402913         2.023236        -2.800535
 O         2.102657         3.253092        -2.676131
 C         2.867712         1.925941        -2.780743
 C         3.401181         1.215740        -1.553582
 C         2.536132         0.400492        -0.461567
 O         1.719963         1.247366         0.435217
 H         0.087461        -1.442410        -1.026459
 H         0.257451        -1.224913         0.779861
 H        -0.908695        -0.190546        -0.263633
 H        -0.318415         0.954163        -2.220124
 H        -0.092990         2.348106        -1.173699
 H         0.743574         2.128154        -3.659435
 H         3.454835         1.696425        -3.702984
 H         4.281810         0.599267        -1.818856
 H         3.828899         1.865693        -0.785785
 H         3.128460        -0.322140        -0.049774
