19
Iteration:  4028charge 0 multiplicity 1
 C         0.137776        -0.551243        -0.159889
 C         1.046596         0.611657        -0.609023
 C         0.438313         1.251024        -1.754240
 C         1.332347         1.993116        -2.729982
 O         2.143438         3.196456        -2.484496
 C         2.807710         1.955401        -2.717367
 C         3.484886         1.202791        -1.590282
 C         2.499219         0.440600        -0.546953
 O         1.742864         1.295725         0.403907
 H         0.125350        -1.279352        -1.091232
 H         0.588691        -1.115358         0.682455
 H        -0.897846        -0.286571         0.047285
 H         0.066855         0.381178        -2.265102
 H        -0.493399         1.915316        -1.400284
 H         0.994840         2.138634        -3.791968
 H         3.312495         1.871301        -3.692317
 H         4.110149         0.346786        -1.988770
 H         4.146763         1.928674        -1.072496
 H         2.938488        -0.457719        -0.228990
