19
Iteration:  4397charge 0 multiplicity 1
 C         0.218679        -0.596359         0.084036
 C         0.990522         0.496936        -0.710991
 C         0.471206         1.223892        -1.936342
 C         1.425166         2.033160        -2.780002
 O         2.133437         3.254935        -2.332175
 C         2.884034         1.994754        -2.669312
 C         3.396662         1.097848        -1.552736
 C         2.473657         0.439976        -0.631829
 O         1.644431         1.371916         0.238335
 H        -0.514041        -1.257218        -0.377817
 H         0.895540        -1.309092         0.616201
 H        -0.435980        -0.082020         0.806508
 H         0.040349         0.443756        -2.507753
 H        -0.239835         2.090661        -1.624386
 H         0.906333         2.202818        -3.692513
 H         3.574429         2.304720        -3.459270
 H         3.994293         0.346395        -2.195722
 H         4.200254         1.599936        -0.941195
 H         2.844797        -0.494962        -0.149350
