19
Iteration:   392charge 0 multiplicity 1
 C         0.322187        -0.586046        -0.174293
 C         1.065657         0.656895        -0.625400
 C         0.339498         1.601708        -1.631595
 C         1.147318         2.289418        -2.632085
 O         2.352319         3.192746        -2.141846
 C         2.531478         1.827251        -2.803562
 C         3.279065         0.887682        -1.928577
 C         2.523805         0.386737        -0.744725
 O         2.008141         1.150742         0.415285
 H         0.666994        -0.901486         0.709191
 H        -0.708332        -0.367780        -0.108067
 H         0.359302        -1.348203        -1.020312
 H        -0.275543         0.826075        -2.220901
 H        -0.430994         2.162506        -1.057387
 H         0.759030         2.860500        -3.407957
 H         3.032794         1.885284        -3.722661
 H         3.633834        -0.016578        -2.482003
 H         4.095966         1.416453        -1.517738
 H         2.641805        -0.623759        -0.439487
