19
Iteration:  1198
 C         0.121621        -0.343476         0.021172
 C         1.060438         0.598921        -0.680731
 C         0.416067         1.315083        -1.787936
 C         1.230033         2.214345        -2.662773
 O         2.046936         3.129753        -1.938770
 C         2.719996         2.066327        -2.647205
 C         3.400929         0.834853        -1.942740
 C         2.479678         0.302246        -0.850925
 O         2.130444         1.240227         0.181570
 H         0.290418        -1.358076        -0.277625
 H         0.214518        -0.154672         1.058892
 H        -0.994824        -0.028917        -0.184661
 H        -0.031696         0.562670        -2.343447
 H        -0.403161         1.883236        -1.302253
 H         0.686809         2.600697        -3.594720
 H         3.377271         2.501146        -3.497691
 H         3.701366         0.019080        -2.698575
 H         4.397865         0.986336        -1.439402
 H         2.823783        -0.641192        -0.371596
