19
Iteration:  1700
 C         0.170422        -0.533738         0.052475
 C         1.025969         0.507017        -0.707694
 C         0.414935         1.265856        -1.910686
 C         1.332448         2.008286        -2.850505
 O         2.030214         3.120921        -2.224577
 C         2.826818         2.021786        -2.602095
 C         3.532253         1.072050        -1.629726
 C         2.517421         0.481661        -0.594338
 O         1.797493         1.374139         0.178098
 H         0.596600        -0.717626         0.966451
 H        -0.809889        -0.081872         0.432723
 H        -0.162410        -1.314184        -0.560418
 H        -0.045063         0.558367        -2.575385
 H        -0.424622         1.940487        -1.465176
 H         0.951214         2.196083        -3.843297
 H         3.468641         2.209197        -3.482221
 H         4.057125         0.249382        -2.179064
 H         4.350212         1.609421        -1.089620
 H         2.965826        -0.293690         0.059805
