19
Iteration:  3370charge 0 multiplicity 1
 C         0.124631        -0.587973        -0.327972
 C         1.073763         0.565328        -0.691515
 C         0.594167         1.644610        -1.563068
 C         1.294394         1.861855        -2.852132
 O         2.132710         3.124771        -2.820118
 C         2.785020         1.761107        -2.719891
 C         3.241182         1.484387        -1.294413
 C         2.576859         0.374667        -0.503494
 O         1.832031         1.020781         0.524063
 H        -0.026704        -1.282831        -1.130873
 H         0.412834        -1.157271         0.535106
 H        -0.874476        -0.175495        -0.072963
 H        -0.433851         1.547958        -1.709484
 H         0.615877         2.693267        -1.148485
 H         0.833931         1.893210        -3.866433
 H         3.433645         1.590860        -3.569790
 H         4.365536         1.607777        -1.133202
 H         2.924096         2.429375        -0.855709
 H         3.073590        -0.592572        -0.279402
