19
Iteration:  4505
 C         0.265318        -0.682523        -0.242841
 C         1.046978         0.501524        -0.607055
 C         0.448435         1.618468        -1.572638
 C         1.343918         2.008231        -2.820948
 O         2.208499         3.181505        -2.791903
 C         2.813378         1.895244        -2.754210
 C         3.405834         1.361913        -1.450116
 C         2.470644         0.428705        -0.518872
 O         1.662332         1.061579         0.508775
 H         0.608431        -1.660729        -0.436971
 H         0.199542        -0.663969         0.809735
 H        -0.830423        -0.580097        -0.541695
 H        -0.422543         1.275677        -2.038557
 H         0.006299         2.578446        -1.096407
 H         0.830473         1.948478        -3.752172
 H         3.288477         1.474978        -3.673029
 H         4.295838         0.700082        -1.698958
 H         3.721830         2.123005        -0.670734
 H         2.872151        -0.518428        -0.168500
