19
Iteration:  2751charge 0 multiplicity 1
 C         0.066401        -0.617289        -0.213326
 C         1.059057         0.475372        -0.597942
 C         0.400215         1.441444        -1.673253
 C         1.288131         1.890555        -2.781302
 O         2.102973         3.084517        -2.515330
 C         2.829355         1.879581        -2.713022
 C         3.524181         1.353266        -1.486869
 C         2.588053         0.492575        -0.637523
 O         1.815817         1.282800         0.351194
 H         0.019454        -1.496217        -0.942029
 H         0.164998        -0.921430         0.811536
 H        -0.900742        -0.107273        -0.343374
 H        -0.444356         0.937796        -2.114347
 H         0.106018         2.364531        -1.097895
 H         0.807971         1.972143        -3.695774
 H         3.348069         1.914006        -3.601034
 H         4.460062         0.826560        -1.559734
 H         3.702999         2.208860        -0.790206
 H         3.010379        -0.418953        -0.195999
