19
Iteration:  2534
 C         0.138146        -0.571496        -0.066983
 C         1.035912         0.595833        -0.680459
 C         0.403272         1.273979        -1.849230
 C         1.366285         2.025639        -2.765325
 O         2.131456         3.146410        -2.275646
 C         2.753832         1.862632        -2.827112
 C         3.486108         1.115892        -1.560219
 C         2.511338         0.471030        -0.593409
 O         1.815411         1.400348         0.324432
 H         0.451906        -1.444116        -0.637673
 H         0.346814        -0.660550         0.914435
 H        -0.939905        -0.410689        -0.225992
 H        -0.188425         0.489051        -2.426297
 H        -0.368598         1.917258        -1.410345
 H         0.860624         2.082524        -3.788982
 H         3.306076         2.114274        -3.719516
 H         4.425276         0.525394        -1.605486
 H         3.803975         1.991920        -1.065465
 H         2.852341        -0.481351        -0.089445
