19
Iteration:  4286
 C         0.272784        -0.488642         0.139073
 C         0.986078         0.488143        -0.766007
 C         0.490050         1.168916        -1.972325
 C         1.348095         2.120288        -2.792443
 O         2.125463         3.224464        -2.172281
 C         2.846914         2.018678        -2.678093
 C         3.460222         1.039986        -1.596367
 C         2.458879         0.404325        -0.577165
 O         1.649916         1.363821         0.152076
 H         0.443195        -1.407277        -0.395081
 H         0.593091        -0.446688         1.126361
 H        -0.915195        -0.257304         0.069003
 H         0.003669         0.328216        -2.576830
 H        -0.439695         1.714731        -1.624690
 H         1.097689         2.297558        -3.803202
 H         3.498411         2.347040        -3.555008
 H         3.840348         0.258133        -2.361361
 H         4.357632         1.385427        -1.026243
 H         2.789614        -0.495325         0.002866
