19
Iteration:   629
 C         0.121648        -0.427619         0.037598
 C         1.046307         0.527608        -0.727794
 C         0.374805         1.506759        -1.633516
 C         1.263785         2.249695        -2.615220
 O         2.175024         3.149710        -2.054920
 C         2.667738         2.004557        -2.748080
 C         3.398007         0.980626        -1.870374
 C         2.545941         0.224808        -0.838026
 O         2.040776         1.093457         0.139114
 H        -0.322543         0.242574         0.788711
 H        -0.790595        -0.797754        -0.457368
 H         0.621455        -1.132662         0.490630
 H        -0.438332         0.928137        -2.237489
 H        -0.257584         2.205241        -1.081896
 H         0.683631         2.643400        -3.456069
 H         3.068023         2.296393        -3.715783
 H         3.905195         0.279183        -2.521291
 H         4.223506         1.507499        -1.343084
 H         2.885223        -0.719808        -0.455485
