19
Iteration:  3937charge 0 multiplicity 1
 C         0.147211        -0.457132         0.061459
 C         1.085517         0.512710        -0.701098
 C         0.496609         1.008054        -2.086010
 C         1.380035         2.150645        -2.771740
 O         2.148742         3.078818        -2.000541
 C         2.782538         1.996531        -2.701021
 C         3.338820         0.975372        -1.694338
 C         2.534831         0.571923        -0.516361
 O         1.706376         1.503154         0.138563
 H        -0.129986        -1.362323        -0.487905
 H         0.666507        -0.851556         0.910197
 H        -0.675942         0.160263         0.469224
 H         0.520351         0.138052        -2.861236
 H        -0.565838         1.301795        -2.012685
 H         0.884824         2.619746        -3.616720
 H         3.436038         2.171883        -3.616502
 H         3.831185         0.175537        -2.249077
 H         4.172600         1.643216        -1.310922
 H         3.024670        -0.248286         0.095295
