19
Iteration:  3483charge 0 multiplicity 1
 C         0.203821        -0.622958        -0.267521
 C         1.020347         0.535331        -0.699052
 C         0.413967         1.498964        -1.649592
 C         1.298562         1.989120        -2.733126
 O         2.163401         3.150812        -2.628105
 C         2.786606         1.854087        -2.700622
 C         3.510667         1.242480        -1.446147
 C         2.523412         0.530397        -0.548958
 O         1.708030         1.212589         0.427592
 H         0.149051        -1.393221        -1.096565
 H         0.803664        -1.197177         0.505732
 H        -0.716664        -0.315096         0.235436
 H        -0.365645         0.935365        -2.105932
 H        -0.064237         2.345400        -1.047983
 H         0.874581         1.728331        -3.729824
 H         3.275194         1.749613        -3.671226
 H         4.212275         0.441327        -1.765390
 H         4.055914         2.065596        -0.874925
 H         2.778791        -0.351575        -0.094513
