19
Iteration:  4198charge 0 multiplicity 1
 C         0.259563        -0.649682        -0.219439
 C         1.062809         0.573718        -0.673118
 C         0.438651         1.458006        -1.737707
 C         1.335351         2.010919        -2.927020
 O         2.122970         3.215371        -2.675860
 C         2.778287         1.921670        -2.610667
 C         3.461336         1.165019        -1.443105
 C         2.511609         0.470485        -0.435480
 O         1.675099         1.221349         0.488442
 H         0.070100        -1.409728        -0.961843
 H         0.716726        -1.301804         0.482869
 H        -0.736193        -0.315939         0.391807
 H        -0.461738         0.927979        -2.213591
 H         0.027539         2.399914        -1.296696
 H         0.811842         1.875298        -3.853842
 H         3.529114         1.877819        -3.467436
 H         3.882976         0.314399        -1.988466
 H         4.233676         1.813935        -0.974665
 H         3.018246        -0.416198         0.046919
