19
Iteration:  2190charge 0 multiplicity 1
 C         0.190349        -0.660395        -0.083120
 C         1.005666         0.626966        -0.624928
 C         0.412476         1.363527        -1.777632
 C         1.305505         2.060217        -2.792184
 O         2.212942         3.175084        -2.534867
 C         2.888043         1.996302        -2.665446
 C         3.404567         1.151552        -1.557773
 C         2.504500         0.441095        -0.569790
 O         1.688039         1.290254         0.352606
 H         0.194304        -1.626126        -0.536774
 H         0.949536        -0.827513         0.824347
 H        -0.841918        -0.501151         0.122242
 H        -0.023648         0.546323        -2.309567
 H        -0.493732         1.931203        -1.548256
 H         0.856088         2.103840        -3.773886
 H         3.499255         1.936695        -3.528420
 H         3.941016         0.305274        -2.024867
 H         4.128896         1.580264        -0.841170
 H         2.875487        -0.484490        -0.010479
