19
Iteration:  4330charge 0 multiplicity 1
 C         0.112317        -0.297381        -0.117047
 C         1.108831         0.620650        -0.677388
 C         0.501314         0.995440        -2.008789
 C         1.330849         2.020348        -2.777622
 O         1.909199         3.044468        -1.977570
 C         2.836584         2.030812        -2.590488
 C         3.436754         0.982632        -1.729504
 C         2.627874         0.449693        -0.531370
 O         1.834509         1.483601         0.161487
 H         0.010781        -1.152093        -0.769181
 H         0.314882        -0.570406         0.880369
 H        -0.944056         0.227055        -0.146088
 H         0.353637         0.172108        -2.671831
 H        -0.509331         1.477199        -1.893295
 H         0.815132         2.537427        -3.547338
 H         3.465976         2.402225        -3.443246
 H         3.698089        -0.009664        -2.237350
 H         4.445322         1.369099        -1.398994
 H         3.030708        -0.374415         0.093354
