19
Iteration:  4674charge 0 multiplicity 1
 C         0.129739        -0.651315        -0.263902
 C         1.014737         0.479521        -0.599113
 C         0.524116         1.624777        -1.566497
 C         1.395666         1.865239        -2.811624
 O         2.097148         3.173081        -2.821772
 C         2.884907         1.953353        -2.783182
 C         3.419353         1.361219        -1.361355
 C         2.496152         0.507451        -0.522652
 O         1.690665         1.075836         0.526763
 H        -0.663349        -0.969719        -1.039799
 H         0.742095        -1.624041        -0.253292
 H        -0.386163        -0.566392         0.649256
 H        -0.518418         1.373470        -1.997838
 H         0.437911         2.613627        -0.991977
 H         0.890920         1.413129        -3.776951
 H         3.470992         1.861583        -3.689300
 H         4.287109         0.673361        -1.627601
 H         3.783946         2.169932        -0.705157
 H         3.006722        -0.463553        -0.341422
