19
Iteration:   303
 C         0.168471        -0.312401         0.183858
 C         1.023411         0.639415        -0.678826
 C         0.280405         1.349263        -1.886411
 C         1.256962         2.237059        -2.613098
 O         2.183269         3.139420        -1.949749
 C         2.697988         1.992087        -2.661870
 C         3.355296         0.990140        -1.866298
 C         2.492423         0.202625        -0.964574
 O         2.132683         1.109387         0.157898
 H         0.751195        -1.096537         0.461921
 H        -0.355288         0.066113         1.135073
 H        -0.676103        -0.729965        -0.485742
 H        -0.128854         0.586699        -2.636494
 H        -0.618282         2.013075        -1.631327
 H         0.783948         2.712491        -3.521615
 H         3.038818         2.339017        -3.655286
 H         4.004888         0.394678        -2.527182
 H         4.106487         1.546112        -1.302070
 H         2.788700        -0.847367        -0.700009
