19
Iteration:   278
 C         0.116856        -0.382333         0.051225
 C         1.109062         0.585005        -0.651146
 C         0.429389         1.328453        -1.768725
 C         1.243561         2.313900        -2.650140
 O         2.096105         3.184896        -1.977293
 C         2.759694         2.076848        -2.705819
 C         3.290809         0.835226        -1.967549
 C         2.481602         0.239411        -0.868517
 O         2.111228         1.182266         0.254879
 H         0.567050        -0.995167         0.840312
 H        -0.580360         0.291384         0.575677
 H        -0.439767        -0.938636        -0.559118
 H         0.093659         0.563886        -2.435932
 H        -0.504330         1.809822        -1.380954
 H         0.675851         2.681200        -3.624831
 H         3.112208         2.572243        -3.677800
 H         3.506796         0.066377        -2.709489
 H         4.347201         1.049101        -1.587280
 H         2.782214        -0.783009        -0.530243
