19
Iteration:  1883
 C         0.137551        -0.542806        -0.129251
 C         1.061219         0.562707        -0.593097
 C         0.464126         1.290960        -1.782274
 C         1.384702         1.985244        -2.833147
 O         2.029921         3.242753        -2.608568
 C         2.884672         2.017745        -2.689729
 C         3.434968         1.154554        -1.561738
 C         2.531843         0.428032        -0.469025
 O         1.727245         1.265659         0.432124
 H        -0.437607        -1.067448        -0.871618
 H         0.767691        -1.392157         0.461729
 H        -0.524530        -0.078156         0.599504
 H        -0.052070         0.339378        -2.305604
 H        -0.296972         1.963584        -1.420816
 H         1.075531         1.752783        -3.885636
 H         3.552868         2.084670        -3.534111
 H         4.022396         0.375381        -2.036903
 H         4.134411         1.706247        -0.915886
 H         2.886442        -0.416701         0.039904
