19
Iteration:   478
 C         0.164195        -0.339518        -0.028272
 C         1.107833         0.602932        -0.667931
 C         0.371333         1.540683        -1.656761
 C         1.204430         2.273631        -2.726310
 O         2.139263         3.223470        -2.142474
 C         2.626201         2.006757        -2.715121
 C         3.381570         0.975227        -1.909245
 C         2.480009         0.203330        -0.905028
 O         2.123409         0.890487         0.437900
 H        -0.485407         0.248142         0.604971
 H        -0.490480        -0.930448        -0.721398
 H         0.706645        -0.927819         0.781509
 H        -0.101198         0.861736        -2.268750
 H        -0.318171         2.187250        -1.129675
 H         0.631809         2.478430        -3.652724
 H         3.028171         2.152608        -3.785851
 H         3.876935         0.422123        -2.721225
 H         4.164391         1.491622        -1.293953
 H         2.806235        -0.823254        -0.613798
