19
Iteration:  3951charge 0 multiplicity 1
 C         0.184545        -0.424193         0.071521
 C         0.973744         0.562794        -0.749385
 C         0.448095         1.004896        -2.092461
 C         1.249832         2.052409        -2.723178
 O         2.148984         3.062957        -1.983646
 C         2.812293         1.980340        -2.627568
 C         3.502297         1.046450        -1.636052
 C         2.454597         0.488394        -0.607018
 O         1.819748         1.557279         0.074190
 H        -0.064730        -1.354544        -0.657197
 H         0.761333        -0.661287         0.959222
 H        -0.882764        -0.175665         0.224234
 H         0.468137         0.182000        -2.698127
 H        -0.671251         1.403529        -2.016480
 H         0.839484         2.579099        -3.647838
 H         3.449643         2.295364        -3.469246
 H         3.921381         0.118405        -2.145788
 H         4.321992         1.527024        -1.057859
 H         2.887849        -0.212779         0.046531
