19
Iteration:   394charge 0 multiplicity 1
 C         0.311031        -0.590059        -0.175739
 C         1.080179         0.649226        -0.645499
 C         0.334706         1.610338        -1.621926
 C         1.138217         2.300880        -2.624135
 O         2.358692         3.178008        -2.150702
 C         2.540673         1.824842        -2.800436
 C         3.279460         0.888069        -1.925838
 C         2.529350         0.404680        -0.744052
 O         2.003038         1.146539         0.413408
 H         0.678681        -0.849692         0.866217
 H        -0.728644        -0.433593        -0.159785
 H         0.344280        -1.410709        -1.024260
 H        -0.356500         0.851297        -2.244721
 H        -0.425808         2.163464        -1.027294
 H         0.721688         2.853029        -3.388611
 H         3.013492         1.896870        -3.696110
 H         3.705118         0.008379        -2.470550
 H         4.110569         1.431245        -1.545432
 H         2.636892        -0.606550        -0.437545
