19
Iteration:  4760
 C         0.213742        -0.672757        -0.383199
 C         1.023855         0.587815        -0.593022
 C         0.410294         1.536886        -1.668959
 C         1.284073         2.023662        -2.790714
 O         2.176086         3.098292        -2.661517
 C         2.734074         1.809159        -2.740501
 C         3.444546         1.282957        -1.476199
 C         2.558507         0.481032        -0.460535
 O         1.761046         1.193597         0.562396
 H         0.486374        -1.464996        -1.112118
 H         0.321775        -0.708891         0.724924
 H        -0.816056        -0.418222        -0.357356
 H        -0.341288         1.092178        -2.182137
 H        -0.064314         2.479332        -1.255717
 H         0.869931         1.967467        -3.790835
 H         3.324191         1.777977        -3.595851
 H         4.301526         0.576461        -1.793046
 H         4.007288         2.098063        -0.967822
 H         2.922668        -0.509883        -0.113025
