19
Iteration:  1129
 C         0.157974        -0.580251        -0.079217
 C         1.030494         0.554831        -0.608114
 C         0.338811         1.471347        -1.662320
 C         1.182135         2.297940        -2.595721
 O         2.350589         3.085573        -2.114685
 C         2.612243         1.890354        -2.720569
 C         3.402420         1.003141        -1.887468
 C         2.521746         0.406735        -0.813433
 O         1.964291         1.267176         0.223612
 H         0.880848        -1.426613         0.161995
 H        -0.523118        -0.250323         0.778246
 H        -0.479597        -0.895455        -0.798154
 H        -0.205914         0.725653        -2.270367
 H        -0.363289         2.109996        -1.183443
 H         0.644784         2.839943        -3.318316
 H         2.993001         1.887241        -3.822955
 H         3.782271         0.058584        -2.460722
 H         4.357873         1.496056        -1.472738
 H         2.972808        -0.566153        -0.335693
