19
Iteration:   646charge 0 multiplicity 1
 C         0.168758        -0.354696         0.092061
 C         1.029872         0.581677        -0.691440
 C         0.280340         1.520361        -1.692672
 C         1.210433         2.141454        -2.706898
 O         2.172395         3.200572        -2.101003
 C         2.740363         2.035032        -2.644893
 C         3.418541         1.032851        -1.827459
 C         2.437833         0.266283        -1.037316
 O         2.099412         0.975435         0.273436
 H        -0.357493         0.124816         1.012822
 H        -0.624747        -0.747578        -0.569088
 H         0.872506        -1.386403         0.439653
 H        -0.461046         0.880525        -2.167122
 H        -0.018554         2.383869        -1.025584
 H         0.790553         2.376336        -3.693112
 H         3.300614         2.149870        -3.621716
 H         3.986415         0.228182        -2.420521
 H         4.096260         1.482898        -1.106599
 H         2.678459        -0.839459        -0.889548
