19
Iteration:  3834
 C         0.046203        -0.641888        -0.115117
 C         1.031563         0.495286        -0.663519
 C         0.476340         1.417778        -1.710637
 C         1.319711         2.009346        -2.831340
 O         2.171954         3.158664        -2.523642
 C         2.801649         1.878201        -2.769196
 C         3.503520         1.281230        -1.495077
 C         2.527336         0.522395        -0.550377
 O         1.750626         1.228497         0.416710
 H         0.066402        -1.514960        -0.752386
 H         0.477104        -0.922893         0.835573
 H        -0.985206        -0.358202        -0.003451
 H        -0.264656         0.690413        -2.289697
 H        -0.048299         2.175046        -1.199220
 H         0.952290         1.970083        -3.874885
 H         3.303457         2.029312        -3.720657
 H         4.265625         0.589419        -1.860197
 H         3.989223         2.180120        -1.113387
 H         3.043501        -0.431518        -0.076954
