19
Iteration:   622
 C         0.099124        -0.429821         0.006690
 C         1.070551         0.503530        -0.717041
 C         0.373189         1.486814        -1.643877
 C         1.205812         2.322568        -2.551660
 O         2.179567         3.158780        -2.038853
 C         2.695948         1.998897        -2.791070
 C         3.380749         0.908969        -1.927825
 C         2.597722         0.232917        -0.783067
 O         2.003031         1.148663         0.116708
 H        -0.356249         0.232530         0.724446
 H        -0.731864        -0.856725        -0.585455
 H         0.655354        -1.350512         0.677458
 H        -0.177044         0.884899        -2.243559
 H        -0.140132         2.187534        -0.979132
 H         0.623322         2.660103        -3.449146
 H         3.194578         2.298795        -3.811959
 H         3.880988         0.089723        -2.448762
 H         4.137990         1.506114        -1.388114
 H         2.960096        -0.713380        -0.236049
