19
Iteration:  2720charge 0 multiplicity 1
 C         0.152946        -0.496628        -0.116311
 C         1.082409         0.515437        -0.679574
 C         0.382960         1.327479        -1.877381
 C         1.333357         1.991759        -2.836703
 O         2.088346         3.142878        -2.513548
 C         2.789600         1.952016        -2.722728
 C         3.424516         1.281572        -1.452031
 C         2.555789         0.455773        -0.531409
 O         1.842799         1.158665         0.451471
 H        -0.205522        -1.372602        -0.713161
 H         0.539905        -0.803539         0.921632
 H        -0.730827         0.100068         0.165389
 H        -0.174162         0.695759        -2.439433
 H        -0.364059         2.146306        -1.611097
 H         0.785770         2.163704        -3.804529
 H         3.440873         1.979633        -3.548121
 H         4.263068         0.556698        -1.679079
 H         3.869084         2.045740        -0.841339
 H         3.057595        -0.521152        -0.253834
