19
Iteration:  4173charge 0 multiplicity 1
 C         0.183865        -0.671108        -0.137276
 C         0.976903         0.544234        -0.678936
 C         0.430813         1.487929        -1.664664
 C         1.408050         1.929606        -2.762302
 O         2.149811         3.158131        -2.638389
 C         2.882324         1.888292        -2.729250
 C         3.421851         1.360664        -1.404327
 C         2.453088         0.444382        -0.624909
 O         1.732399         1.195686         0.363036
 H         0.174482        -1.531421        -0.809684
 H         0.672450        -1.181692         0.762823
 H        -0.819282        -0.432428         0.228553
 H        -0.430646         1.166842        -2.124935
 H         0.169827         2.553993        -1.192141
 H         0.822359         1.850659        -3.683774
 H         3.364469         1.635876        -3.651283
 H         4.396070         0.788033        -1.589952
 H         3.550450         2.235299        -0.658713
 H         2.937442        -0.407041        -0.254718
