19
Iteration:  4489charge 0 multiplicity 1
 C         0.262190        -0.684492        -0.263820
 C         1.059123         0.583375        -0.746409
 C         0.453642         1.610815        -1.603435
 C         1.313398         2.010486        -2.760094
 O         2.176283         3.188090        -2.749174
 C         2.764778         1.828387        -2.682437
 C         3.386841         1.211550        -1.418430
 C         2.525796         0.468558        -0.505408
 O         1.651292         1.158003         0.496721
 H         0.876694        -1.549448        -0.699545
 H         0.458909        -0.707274         0.864890
 H        -0.810339        -0.695855        -0.580600
 H        -0.535579         1.117851        -2.007445
 H         0.251511         2.378211        -0.947414
 H         0.861075         1.807776        -3.783072
 H         3.480568         1.799341        -3.511117
 H         4.147190         0.575698        -1.775306
 H         3.908414         2.032178        -0.998533
 H         2.960687        -0.490150        -0.156966
