19
Iteration:  3113charge 0 multiplicity 1
 C         0.204032        -0.817749        -0.302254
 C         1.047096         0.502286        -0.651682
 C         0.426684         1.652136        -1.594073
 C         1.325725         1.950498        -2.745184
 O         2.222237         3.152089        -2.794680
 C         2.784460         1.740497        -2.711057
 C         3.412887         1.421098        -1.459103
 C         2.488013         0.580608        -0.523396
 O         1.689988         1.157153         0.533354
 H        -0.327549        -1.188889        -1.197228
 H         0.745575        -1.699312         0.257614
 H        -0.547851        -0.489182         0.421131
 H        -0.594569         1.548026        -2.011390
 H         0.340620         2.430139        -0.933637
 H         0.801480         1.835256        -3.660831
 H         3.389132         1.509424        -3.581957
 H         4.291829         0.863490        -1.525919
 H         3.916055         2.345151        -0.994517
 H         3.156719        -0.309123        -0.147476
