19
Iteration:  1776
 C         0.112677        -0.483650        -0.022228
 C         1.122340         0.479117        -0.692731
 C         0.598994         1.115810        -1.916024
 C         1.388929         1.989126        -2.756759
 O         2.019806         3.220598        -2.231667
 C         2.810248         2.024618        -2.644676
 C         3.373986         0.989427        -1.737165
 C         2.541087         0.570202        -0.501490
 O         1.697574         1.464775         0.260488
 H         0.208835        -1.543721        -0.155467
 H         0.472068        -0.428207         1.117908
 H        -0.919745        -0.242831        -0.089517
 H         0.487147         0.283700        -2.509946
 H        -0.458383         1.459324        -1.802213
 H         0.872361         2.155363        -3.831800
 H         3.640500         2.257586        -3.554373
 H         3.507156         0.042078        -2.352718
 H         4.388389         1.311186        -1.408453
 H         2.975338        -0.312193        -0.005190
