19
Iteration:  1458charge 0 multiplicity 1
 C         0.156117        -0.520460        -0.071943
 C         1.069306         0.574928        -0.567107
 C         0.455031         1.205676        -1.873629
 C         1.326215         2.176062        -2.711393
 O         2.156696         3.116179        -2.093568
 C         2.755930         1.973791        -2.774796
 C         3.313429         0.962761        -1.787438
 C         2.507245         0.500833        -0.670427
 O         1.872759         1.407227         0.254999
 H         0.499664        -1.572469        -0.130937
 H         0.071056        -0.492120         1.138740
 H        -0.788277        -0.327054        -0.588943
 H         0.266438         0.297628        -2.455607
 H        -0.437703         1.711177        -1.532252
 H         0.757724         2.568267        -3.509265
 H         3.283181         2.089678        -3.649074
 H         3.472046         0.004251        -2.294690
 H         4.310431         1.201894        -1.408815
 H         3.134658        -0.179462        -0.053586
