19
Iteration:  1897
 C         0.102668        -0.545759        -0.150613
 C         1.023482         0.584421        -0.587542
 C         0.461143         1.319872        -1.813895
 C         1.378771         1.859611        -2.873245
 O         2.045536         3.179860        -2.563276
 C         2.791703         2.021005        -2.641684
 C         3.541726         1.215285        -1.471033
 C         2.504486         0.496389        -0.560256
 O         1.813586         1.265094         0.497825
 H        -0.206860        -1.064271        -1.023542
 H         0.648426        -1.187103         0.599709
 H        -0.806281        -0.275469         0.338818
 H        -0.120570         0.589649        -2.413718
 H        -0.323706         2.020891        -1.602270
 H         0.843474         1.989689        -3.931582
 H         3.384894         1.921944        -3.670395
 H         3.843897         0.393733        -2.125630
 H         4.435952         1.689100        -1.078687
 H         2.943818        -0.451387        -0.247220
