19
Iteration:  1363charge 0 multiplicity 1
 C         0.178275        -0.510795        -0.011683
 C         1.018280         0.500471        -0.739600
 C         0.379232         1.497454        -1.700798
 C         1.287552         2.147947        -2.725225
 O         2.139953         3.199843        -2.382983
 C         2.756176         2.002751        -2.705070
 C         3.422521         1.039477        -1.645087
 C         2.458843         0.309346        -0.697119
 O         1.942182         1.179131         0.330786
 H         0.338460        -0.191838         0.979927
 H        -0.831125        -0.522659        -0.278961
 H         0.571883        -1.586523        -0.187244
 H        -0.379778         0.895483        -2.309725
 H        -0.113982         2.260990        -1.055876
 H         0.740867         2.240614        -3.708757
 H         3.252423         1.947735        -3.793275
 H         4.056696         0.314631        -2.271292
 H         4.146245         1.522705        -0.925197
 H         2.933144        -0.633937        -0.309358
