19
Iteration:  4470charge 0 multiplicity 1
 C         0.253601        -0.769665        -0.353255
 C         0.969149         0.590272        -0.582885
 C         0.389128         1.603290        -1.676252
 C         1.292211         1.927501        -2.844583
 O         2.148371         3.093426        -2.561055
 C         2.798746         1.838208        -2.679396
 C         3.479186         1.242930        -1.425724
 C         2.534540         0.524474        -0.520712
 O         1.767043         1.301073         0.437309
 H         0.430771        -1.623182        -0.974860
 H         0.193075        -1.005677         0.643134
 H        -0.912939        -0.510922        -0.572969
 H        -0.555506         1.189281        -2.061129
 H         0.295137         2.467218        -0.980162
 H         0.803614         2.011671        -3.833779
 H         3.162498         1.660577        -3.761108
 H         4.208460         0.482401        -1.753300
 H         4.169544         2.054794        -1.014248
 H         2.996536        -0.372218        -0.105018
