19
Iteration:   522
 C         0.067894        -0.465267         0.046680
 C         1.134546         0.493974        -0.704157
 C         0.342474         1.476722        -1.593565
 C         1.226132         2.255136        -2.498409
 O         2.250730         3.187975        -2.001995
 C         2.659656         2.000021        -2.712896
 C         3.432799         0.891373        -1.999496
 C         2.522100         0.222698        -0.936068
 O         1.977729         1.251961         0.104776
 H        -0.936137        -0.073275         0.005901
 H         0.079477        -1.503843        -0.415947
 H         0.321283        -0.523481         1.229215
 H        -0.246631         0.947977        -2.251672
 H        -0.195110         2.202458        -0.916982
 H         0.679893         2.718282        -3.335962
 H         3.069592         2.271380        -3.764975
 H         3.729759         0.109235        -2.740422
 H         4.373369         1.238303        -1.506647
 H         2.890345        -0.772995        -0.556882
