19
Iteration:  2047charge 0 multiplicity 1
 C         0.099622        -0.360516         0.122344
 C         0.971945         0.411106        -0.768170
 C         0.464729         1.039595        -1.997514
 C         1.366426         1.995240        -2.802505
 O         2.059159         3.065871        -2.041491
 C         2.861668         2.001519        -2.660704
 C         3.525128         1.149059        -1.573004
 C         2.484306         0.475120        -0.636810
 O         1.802425         1.477974         0.027444
 H        -0.306962        -1.185859        -0.450479
 H         0.774271        -0.995369         0.907166
 H        -0.721909         0.219442         0.509916
 H        -0.116477         0.355789        -2.660883
 H        -0.287469         1.747505        -1.626447
 H         0.937104         2.343679        -3.682157
 H         3.483521         2.317926        -3.419417
 H         4.251052         0.505650        -2.101774
 H         4.070994         1.864927        -0.926678
 H         2.879161        -0.260360         0.079103
