19
Iteration:  4833
 C         0.205995        -0.503921        -0.158394
 C         1.091343         0.628328        -0.709643
 C         0.432855         1.238050        -1.854225
 C         1.314862         2.060125        -2.757819
 O         2.162980         3.125582        -2.271928
 C         2.769522         1.875742        -2.697784
 C         3.430085         1.146411        -1.551472
 C         2.519355         0.436826        -0.595062
 O         1.702002         1.363355         0.325781
 H        -0.177910        -1.032037        -0.988414
 H         0.987636        -1.027181         0.459588
 H        -0.592887        -0.154628         0.618089
 H         0.021849         0.288078        -2.437840
 H        -0.499067         1.792371        -1.599093
 H         0.824062         2.249245        -3.722814
 H         3.285403         1.834812        -3.713784
 H         4.071557         0.388635        -1.908375
 H         4.095290         1.808812        -0.992185
 H         3.010301        -0.394144        -0.068859
