19
Iteration:  1365charge 0 multiplicity 1
 C         0.197706        -0.522211         0.010924
 C         1.005583         0.507351        -0.761164
 C         0.375644         1.508374        -1.690838
 C         1.294676         2.142835        -2.740482
 O         2.134752         3.190788        -2.383170
 C         2.777187         2.011610        -2.697935
 C         3.414306         1.041683        -1.637210
 C         2.454762         0.308605        -0.696842
 O         1.938280         1.168885         0.314996
 H         0.316858        -0.196669         0.987214
 H        -0.807893        -0.495523        -0.133579
 H         0.555262        -1.560151        -0.234448
 H        -0.342812         0.956141        -2.270597
 H        -0.202856         2.254813        -1.043429
 H         0.745029         2.256013        -3.759271
 H         3.265133         1.946367        -3.710173
 H         4.080585         0.338243        -2.258142
 H         4.161918         1.535011        -0.957954
 H         2.861860        -0.618881        -0.357264
