19
Iteration:  4542
 C         0.120543        -0.594368        -0.357954
 C         1.048966         0.561902        -0.662802
 C         0.445949         1.621901        -1.568078
 C         1.308465         1.861508        -2.758448
 O         2.113261         3.042314        -2.671470
 C         2.810486         1.828725        -2.738200
 C         3.398118         1.456550        -1.338656
 C         2.558103         0.445244        -0.623084
 O         1.839937         1.102710         0.487402
 H         0.356393        -1.552811        -0.892189
 H        -0.095857        -0.565089         0.783734
 H        -0.739470        -0.310081        -0.824875
 H        -0.517542         1.093145        -1.870340
 H         0.318019         2.631308        -1.066172
 H         0.911429         1.667881        -3.805210
 H         3.320892         1.592672        -3.635515
 H         4.455879         1.219258        -1.518775
 H         3.431125         2.352344        -0.743973
 H         3.059537        -0.489251        -0.306636
