19
Iteration:  4386charge 0 multiplicity 1
 C         0.175631        -0.531239         0.134610
 C         0.962619         0.489790        -0.674232
 C         0.474630         1.177878        -1.896424
 C         1.451104         2.007130        -2.837703
 O         2.121733         3.176048        -2.220404
 C         2.897043         2.099571        -2.596116
 C         3.488177         1.106676        -1.645641
 C         2.418104         0.422900        -0.692738
 O         1.631146         1.393584         0.158770
 H        -0.428380        -1.130837        -0.535035
 H         0.953805        -1.108126         0.688684
 H        -0.343619         0.064276         0.913543
 H         0.117714         0.390963        -2.530338
 H        -0.542164         1.598518        -1.643714
 H         1.078512         2.288343        -3.791888
 H         3.532697         2.134154        -3.502718
 H         4.070774         0.315312        -2.242346
 H         4.209271         1.684648        -1.008886
 H         2.926239        -0.467044        -0.251953
