19
Iteration:  2722
 C         0.136095        -0.488935        -0.123964
 C         1.079273         0.516933        -0.674020
 C         0.394585         1.350021        -1.875465
 C         1.335703         1.971623        -2.811084
 O         2.082515         3.143574        -2.506624
 C         2.792952         1.924933        -2.719562
 C         3.423679         1.317235        -1.465754
 C         2.583944         0.451746        -0.541507
 O         1.826568         1.149641         0.446034
 H        -0.159154        -1.301992        -0.711213
 H         0.567738        -0.759511         0.938942
 H        -0.780389         0.050902         0.114435
 H        -0.155618         0.625268        -2.451224
 H        -0.298362         2.136228        -1.537496
 H         0.760682         2.154578        -3.816857
 H         3.445565         1.945483        -3.656658
 H         4.264640         0.572825        -1.646933
 H         3.859413         2.050573        -0.856548
 H         3.033603        -0.543968        -0.260562
