19
Iteration:  2161
 C         0.310899        -0.732112        -0.074994
 C         0.974715         0.601983        -0.671317
 C         0.378245         1.358039        -1.856096
 C         1.303356         2.108621        -2.772457
 O         2.275886         3.164347        -2.341146
 C         2.803617         1.789215        -2.729809
 C         3.435813         1.118130        -1.558437
 C         2.468031         0.581590        -0.505826
 O         1.663934         1.375652         0.245309
 H         0.530286        -1.664268        -0.755218
 H         0.773100        -0.879773         0.947133
 H        -0.805160        -0.661060         0.304172
 H        -0.466535         0.719722        -2.380590
 H        -0.171078         2.207833        -1.429504
 H         0.861614         2.288697        -3.844294
 H         3.289598         1.716366        -3.745274
 H         4.121222         0.296974        -1.866560
 H         4.014476         1.889669        -1.028110
 H         2.755362        -0.302309        -0.031896
