19
Iteration:  1434
 C         0.056544        -0.431624        -0.142137
 C         1.171704         0.501400        -0.700017
 C         0.406664         1.285564        -1.845527
 C         1.247477         2.170982        -2.675326
 O         2.153465         3.119770        -2.178846
 C         2.640016         1.926303        -2.717272
 C         3.485630         0.983754        -1.831867
 C         2.651791         0.465732        -0.518178
 O         1.834059         1.358992         0.341377
 H         0.525310        -1.467939         0.129005
 H        -0.338721        -0.254826         0.993423
 H        -0.613700        -0.483833        -0.903506
 H         0.079032         0.466852        -2.412744
 H        -0.378741         1.851970        -1.252466
 H         0.767811         2.445107        -3.627989
 H         2.935623         1.900661        -3.715015
 H         3.804401         0.093901        -2.436393
 H         4.443202         1.482832        -1.578318
 H         3.098379        -0.364114        -0.012563
