19
Iteration:    68
 C         0.118152        -0.685015        -0.116524
 C         1.047784         0.442409        -0.631001
 C         0.425859         1.572459        -1.472155
 C         1.202803         2.319343        -2.562607
 O         2.342030         3.258891        -2.332645
 C         2.618644         1.936906        -2.852977
 C         3.376224         0.984426        -1.874209
 C         2.523709         0.352320        -0.731525
 O         1.934438         1.165652         0.298607
 H         0.574877        -1.200069         0.826260
 H        -0.815184        -0.203383         0.181743
 H        -0.170127        -1.380739        -0.838221
 H        -0.483670         1.281570        -1.943353
 H         0.147643         2.326421        -0.682523
 H         0.544118         2.674171        -3.380605
 H         3.058406         1.840639        -3.816615
 H         3.674106         0.111107        -2.403608
 H         4.337626         1.376147        -1.497325
 H         2.999020        -0.541739        -0.398160
