19
Iteration:  2403
 C         0.093000        -0.561953         0.150776
 C         1.018631         0.438812        -0.705056
 C         0.427263         1.263149        -1.888592
 C         1.439052         2.038509        -2.824333
 O         2.072246         3.266550        -2.476628
 C         2.920571         2.026330        -2.695969
 C         3.413152         1.182056        -1.505797
 C         2.518032         0.395447        -0.552299
 O         1.771921         1.288866         0.307712
 H        -0.500717        -1.145204        -0.675682
 H         0.554920        -1.302205         0.792684
 H        -0.753602         0.062045         0.608247
 H         0.024034         0.495133        -2.706892
 H        -0.430470         1.813871        -1.595127
 H         1.018131         2.137499        -3.915681
 H         3.525500         1.957098        -3.623412
 H         4.019652         0.425790        -2.037111
 H         4.044919         1.913278        -1.033818
 H         3.071547        -0.476377        -0.242922
