19
Iteration:  1040
 C         0.180674        -0.555817        -0.006900
 C         1.013546         0.482464        -0.649401
 C         0.339858         1.645663        -1.452225
 C         1.189027         2.246970        -2.659933
 O         2.307902         3.225080        -2.357020
 C         2.658943         1.974840        -2.783915
 C         3.394933         1.110066        -1.742132
 C         2.451543         0.228659        -0.907394
 O         2.029583         0.972722         0.278753
 H        -0.118014        -0.093052         0.990968
 H        -0.796854        -0.711709        -0.572688
 H         0.646391        -1.524411         0.207506
 H        -0.474689         1.185305        -2.003783
 H        -0.186792         2.367883        -0.887779
 H         0.638337         2.520605        -3.549437
 H         3.204597         1.993266        -3.822688
 H         4.213673         0.546673        -2.300044
 H         3.861576         1.913323        -1.080812
 H         2.918747        -0.816938        -0.697470
