19
Iteration:  3246
 C         0.235046        -0.643350        -0.513069
 C         0.962085         0.619986        -0.617036
 C         0.406055         1.723992        -1.445384
 C         1.324853         1.839126        -2.639278
 O         2.198114         3.075998        -2.997081
 C         2.755386         1.740207        -2.694556
 C         3.460989         1.526710        -1.312494
 C         2.489854         0.556040        -0.562707
 O         1.791217         1.006312         0.599141
 H         0.290219        -1.234823        -1.402584
 H         0.640734        -1.266150         0.215627
 H        -0.829171        -0.422769        -0.283939
 H        -0.564863         1.283084        -1.823288
 H         0.262670         2.604023        -0.927533
 H         0.853382         1.460978        -3.543899
 H         3.316340         1.121404        -3.462695
 H         4.448636         1.051645        -1.378773
 H         3.339373         2.465509        -0.678406
 H         2.841159        -0.587851        -0.329927
