19
Iteration:  2184
 C         0.251223        -0.681075        -0.063494
 C         1.001358         0.561529        -0.635289
 C         0.382640         1.391404        -1.768134
 C         1.327735         2.061952        -2.763416
 O         2.249240         3.195524        -2.521824
 C         2.904780         1.964077        -2.693465
 C         3.356767         1.134136        -1.533570
 C         2.439111         0.414222        -0.625484
 O         1.682387         1.357080         0.367328
 H         0.497253        -1.616773        -0.748187
 H         0.749969        -0.806269         0.857443
 H        -0.823941        -0.603658         0.361993
 H         0.050592         0.513156        -2.485523
 H        -0.556424         1.949057        -1.542145
 H         0.807359         2.152897        -3.789964
 H         3.586613         1.875033        -3.615619
 H         3.945991         0.368127        -2.076198
 H         4.041583         1.671552        -0.852393
 H         2.865760        -0.338947        -0.034200
