19
Iteration:  1021charge 0 multiplicity 1
 C         0.110133        -0.450587        -0.065981
 C         1.114197         0.572574        -0.676839
 C         0.339961         1.586364        -1.582351
 C         1.185209         2.330551        -2.551007
 O         2.230234         3.218082        -2.292893
 C         2.581045         1.834474        -2.854390
 C         3.380822         1.116388        -1.767996
 C         2.541192         0.261048        -0.818192
 O         2.117165         0.894441         0.339493
 H        -0.740165        -0.026757         0.618075
 H        -0.514129        -1.056647        -0.832716
 H         0.721350        -1.138474         0.386821
 H        -0.462051         1.121694        -2.019337
 H        -0.064549         2.389613        -0.957169
 H         0.677114         2.615405        -3.455986
 H         2.969115         1.798904        -3.962301
 H         4.208991         0.503202        -2.152346
 H         3.775601         1.915439        -1.149989
 H         2.891920        -0.793486        -0.804697
