19
Iteration:  3158
 C         0.201924        -0.569012        -0.460528
 C         1.087640         0.619241        -0.638771
 C         0.372036         1.640317        -1.571999
 C         1.325153         1.853531        -2.787719
 O         2.065755         3.077783        -2.839143
 C         2.783557         1.775467        -2.595317
 C         3.439831         1.428371        -1.333943
 C         2.528417         0.486740        -0.536991
 O         1.818931         1.082206         0.575289
 H        -0.114395        -0.883703        -1.454487
 H         0.746292        -1.458947        -0.020036
 H        -0.690597        -0.300330         0.200827
 H        -0.656677         1.352665        -1.914322
 H         0.267784         2.573627        -1.174842
 H         1.123043         1.414545        -3.762388
 H         3.117863         1.415798        -3.620321
 H         4.428801         0.987462        -1.519138
 H         3.737600         2.219227        -0.543981
 H         3.057107        -0.552361        -0.258002
