19
Iteration:  1073
 C         0.170383        -0.604017        -0.103819
 C         1.035329         0.487925        -0.663771
 C         0.354119         1.698206        -1.489910
 C         1.221547         2.191295        -2.691473
 O         2.117694         3.259267        -2.323418
 C         2.759315         2.023317        -2.744686
 C         3.413695         0.951730        -1.857731
 C         2.500290         0.273670        -0.732041
 O         2.012880         1.074489         0.334660
 H         0.253797        -0.535291         1.038832
 H        -0.936005        -0.362982        -0.288893
 H         0.418538        -1.571367        -0.432196
 H        -0.650196         1.383227        -1.909683
 H         0.250518         2.566093        -0.888514
 H         0.753694         2.264230        -3.642290
 H         3.361000         2.219676        -3.737747
 H         3.702632         0.072444        -2.557797
 H         4.397914         1.279467        -1.349373
 H         2.944571        -0.773267        -0.397839
