19
Iteration:  1607charge 0 multiplicity 1
 C         0.272426        -0.613140        -0.036011
 C         0.997303         0.537360        -0.659463
 C         0.307055         1.427964        -1.716313
 C         1.324999         1.966877        -2.724141
 O         2.123536         3.129009        -2.292079
 C         2.833502         1.916787        -2.699216
 C         3.516680         1.126307        -1.615191
 C         2.493736         0.442926        -0.696273
 O         1.749182         1.371861         0.191014
 H        -0.767223        -0.244058         0.183227
 H         0.113589        -1.357874        -0.706325
 H         0.800842        -1.100299         0.726163
 H        -0.565979         0.991583        -2.228742
 H        -0.051925         2.313301        -1.237991
 H         0.843921         2.101335        -3.788836
 H         3.505241         2.152133        -3.649251
 H         4.125541         0.361786        -2.132461
 H         4.231967         1.696705        -1.010000
 H         2.885689        -0.438737        -0.168973
