19
Iteration:   791
 C         0.139195        -0.520593        -0.048019
 C         1.072780         0.455763        -0.626140
 C         0.381128         1.461699        -1.551750
 C         1.236961         2.285859        -2.575607
 O         2.287140         3.175505        -2.068888
 C         2.651232         2.046382        -2.823429
 C         3.274099         0.939719        -1.975552
 C         2.558210         0.344375        -0.781616
 O         2.005380         1.149101         0.175283
 H        -0.895677         0.011393         0.170863
 H        -0.344624        -1.183446        -0.863152
 H         0.557858        -1.009525         0.769761
 H        -0.253658         0.930944        -2.115371
 H        -0.105568         2.137951        -0.803126
 H         0.664338         2.930349        -3.201634
 H         3.241390         2.217615        -3.660036
 H         3.295718         0.068530        -2.696062
 H         4.323861         1.121416        -1.781357
 H         3.123242        -0.431449        -0.319857
