19
Iteration:  1559charge 0 multiplicity 1
 C         0.044205        -0.399502        -0.085619
 C         1.103385         0.589386        -0.601173
 C         0.507075         1.204036        -1.858464
 C         1.268874         2.077701        -2.821971
 O         2.068786         3.240867        -2.262222
 C         2.743745         2.023929        -2.748275
 C         3.397594         1.049535        -1.715308
 C         2.570599         0.436986        -0.585370
 O         1.929565         1.195501         0.397805
 H        -0.856168        -0.337180        -0.685809
 H         0.439449        -1.492906        -0.038083
 H        -0.063596        -0.316298         1.122093
 H         0.211171         0.261457        -2.431041
 H        -0.437549         1.591225        -1.540254
 H         0.787425         2.362107        -3.703348
 H         3.174175         1.959607        -3.668758
 H         3.921137         0.262351        -2.228053
 H         4.214510         1.600755        -1.226653
 H         3.050334        -0.500378        -0.157442
