19
Iteration:  3919charge 0 multiplicity 1
 C         0.179470        -0.438757         0.045682
 C         1.065734         0.473721        -0.720209
 C         0.623210         1.100180        -1.986399
 C         1.370849         2.112141        -2.765287
 O         2.104257         3.127025        -2.116599
 C         2.798627         1.982063        -2.697035
 C         3.475072         1.004807        -1.749590
 C         2.538147         0.540161        -0.538425
 O         1.558704         1.445310         0.235681
 H        -0.301202        -1.225877        -0.715971
 H         0.587345        -1.029882         0.861656
 H        -0.544509         0.239861         0.523097
 H         0.440560         0.299839        -2.624093
 H        -0.466011         1.427464        -1.706315
 H         0.778262         2.428081        -3.683824
 H         3.331756         2.436186        -3.496332
 H         3.406130        -0.018787        -2.227079
 H         4.511276         1.100073        -1.479771
 H         3.068347         0.051137         0.194604
