19
Iteration:  2254
 C         0.070720        -0.481322        -0.083057
 C         1.028868         0.602192        -0.694297
 C         0.343904         1.229059        -1.911991
 C         1.403981         1.940213        -2.773472
 O         2.036980         3.086543        -2.270960
 C         2.858952         1.926902        -2.618704
 C         3.544131         1.164899        -1.512603
 C         2.544680         0.457465        -0.671955
 O         1.817156         1.377673         0.251256
 H        -0.473753        -1.072746        -0.753482
 H         0.694799        -1.045375         0.712603
 H        -0.685773         0.080477         0.443045
 H        -0.239217         0.530689        -2.465252
 H        -0.436006         2.032845        -1.506930
 H         1.225771         2.029366        -3.797016
 H         3.350649         2.081352        -3.570873
 H         4.319877         0.531488        -1.957689
 H         4.027043         1.955043        -0.876460
 H         3.042977        -0.474476        -0.108991
