19
Iteration:  4000charge 0 multiplicity 1
 C         0.105535        -0.524192         0.011998
 C         1.091359         0.464857        -0.759810
 C         0.476306         1.275684        -1.923097
 C         1.393111         2.026130        -2.923069
 O         1.978261         3.131911        -2.306732
 C         2.854341         2.029248        -2.603996
 C         3.436055         1.118474        -1.622535
 C         2.552415         0.471812        -0.476377
 O         1.784514         1.343388         0.310411
 H        -0.082279        -1.446658        -0.423186
 H         0.494394        -0.572921         1.078673
 H        -0.948191        -0.171354        -0.052377
 H        -0.284363         0.529600        -2.350075
 H        -0.061238         1.961749        -1.343112
 H         1.164527         2.321585        -3.911080
 H         3.483668         2.311490        -3.476633
 H         3.684016         0.194888        -2.120161
 H         4.366455         1.533194        -1.234151
 H         3.102501        -0.458191        -0.053003
