19
Iteration:  4945charge 0 multiplicity 1
 C         0.134311        -0.444842        -0.032347
 C         0.999162         0.511068        -0.710431
 C         0.424852         1.103484        -1.972562
 C         1.359771         2.020828        -2.689909
 O         2.139465         3.106826        -2.092707
 C         2.807578         2.028554        -2.721571
 C         3.511793         1.076231        -1.691079
 C         2.525024         0.528209        -0.585159
 O         1.743058         1.441769         0.226194
 H        -0.055673        -1.356683        -0.605506
 H         0.310413        -0.730194         1.012246
 H        -0.881139        -0.072340         0.115925
 H         0.462429         0.138197        -2.559666
 H        -0.507926         1.453042        -1.877590
 H         0.988139         2.277154        -3.628644
 H         3.296970         2.283947        -3.643700
 H         3.905778         0.274719        -2.238755
 H         4.414860         1.535695        -1.328559
 H         2.832113        -0.305078         0.073809
