19
Iteration:   611
 C         0.088184        -0.430816        -0.014940
 C         1.138109         0.426354        -0.699108
 C         0.386492         1.408638        -1.649373
 C         1.194625         2.366646        -2.543124
 O         2.246425         3.188375        -2.011645
 C         2.632633         1.964275        -2.788832
 C         3.367164         0.821845        -1.972200
 C         2.576396         0.298870        -0.772486
 O         1.965424         1.268157         0.156806
 H        -0.584496         0.081092         0.651789
 H        -0.421966        -0.923106        -0.858489
 H         0.612039        -1.372051         0.633447
 H        -0.295110         0.957416        -2.292338
 H        -0.317600         1.944410        -0.982599
 H         0.604090         2.914073        -3.319747
 H         3.242467         2.205765        -3.747827
 H         3.735249         0.038349        -2.655181
 H         4.307957         1.264119        -1.578624
 H         3.170670        -0.534898        -0.275228
