19
Iteration:  1541
 C         0.026189        -0.449881         0.006671
 C         1.066547         0.510541        -0.650008
 C         0.448813         1.228346        -1.862975
 C         1.289325         2.106660        -2.669400
 O         2.060085         3.102025        -2.174394
 C         2.802395         1.949726        -2.736459
 C         3.493553         1.112788        -1.744196
 C         2.552100         0.441938        -0.691663
 O         1.919194         1.326164         0.311138
 H        -0.829217        -0.479614        -0.732707
 H         0.331953        -1.417173         0.174986
 H        -0.296449        -0.005921         0.903424
 H         0.172044         0.448811        -2.601224
 H        -0.581936         1.651138        -1.695650
 H         0.858521         2.311515        -3.752578
 H         3.373572         2.460865        -3.676233
 H         3.895402         0.263428        -2.352923
 H         4.320207         1.738009        -1.380239
 H         2.981827        -0.473932        -0.274707
