19
Iteration:  3839
 C         0.090133        -0.607612        -0.111160
 C         1.062422         0.529130        -0.690696
 C         0.437598         1.393303        -1.762708
 C         1.327981         1.983120        -2.826410
 O         2.184494         3.110939        -2.479669
 C         2.780570         1.871834        -2.706850
 C         3.495202         1.308444        -1.509736
 C         2.500626         0.543963        -0.556972
 O         1.755693         1.214231         0.386360
 H        -0.019883        -1.579899        -0.687016
 H         0.559121        -0.901539         0.872891
 H        -0.988642        -0.274946        -0.019526
 H        -0.254349         0.828896        -2.237083
 H        -0.127554         2.236779        -1.198917
 H         0.890131         2.063183        -3.817793
 H         3.227833         1.954430        -3.741948
 H         4.242885         0.546192        -1.820322
 H         4.067375         2.150369        -0.988871
 H         3.063530        -0.345621        -0.284130
