19
Iteration:   269
 C         0.120192        -0.372801         0.041607
 C         1.126681         0.463211        -0.699532
 C         0.411701         1.361758        -1.789162
 C         1.277243         2.264056        -2.596954
 O         2.103378         3.205254        -1.983385
 C         2.706717         2.079724        -2.687541
 C         3.265029         0.833828        -2.034639
 C         2.562317         0.254573        -0.834504
 O         2.080564         1.242779         0.298968
 H         0.486417        -0.901958         0.856483
 H        -0.739673         0.311158         0.393324
 H        -0.382500        -1.091928        -0.696796
 H        -0.187579         0.682377        -2.465924
 H        -0.306967         2.057655        -1.222821
 H         0.739012         2.721234        -3.522513
 H         3.368637         2.293363        -3.635396
 H         3.195402         0.037772        -2.791945
 H         4.309372         0.978755        -1.690501
 H         2.986087        -0.718398        -0.439423
