19
Iteration:  1706
 C         0.198174        -0.477528         0.038146
 C         1.030162         0.508422        -0.751235
 C         0.388963         1.260723        -1.892167
 C         1.340538         1.982653        -2.850740
 O         2.027722         3.098148        -2.195371
 C         2.812352         1.979790        -2.589881
 C         3.548112         1.107172        -1.605069
 C         2.536007         0.451564        -0.593964
 O         1.775304         1.389101         0.147675
 H         0.765281        -0.850779         1.017178
 H        -0.639312         0.083864         0.476893
 H        -0.305824        -1.322917        -0.568290
 H        -0.167648         0.475791        -2.502334
 H        -0.355850         1.935677        -1.598828
 H         0.819501         2.404496        -3.805821
 H         3.570182         2.309112        -3.409741
 H         4.021544         0.316008        -2.185635
 H         4.334330         1.660203        -1.085715
 H         2.891556        -0.411297        -0.026688
