19
Iteration:  1210
 C         0.088765        -0.245156        -0.015143
 C         1.181701         0.621460        -0.649858
 C         0.424313         1.273459        -1.811836
 C         1.175481         2.255243        -2.649287
 O         2.073379         3.053855        -1.929353
 C         2.682745         2.014193        -2.664021
 C         3.354797         0.932055        -1.908275
 C         2.577506         0.205851        -0.817411
 O         2.105202         1.251245         0.215007
 H         0.075766        -1.209929        -0.469877
 H         0.170805        -0.472045         0.999031
 H        -0.980089         0.230557        -0.358738
 H         0.069049         0.505184        -2.424297
 H        -0.487855         1.766061        -1.387478
 H         0.710484         2.736402        -3.622949
 H         3.197700         2.359882        -3.619775
 H         3.432622         0.120062        -2.703326
 H         4.330510         1.348669        -1.606902
 H         2.850456        -0.804546        -0.557722
