19
Iteration:  4576charge 0 multiplicity 1
 C         0.165845        -0.721481        -0.331931
 C         1.058380         0.585528        -0.668973
 C         0.512573         1.709592        -1.609149
 C         1.314463         1.931491        -2.849471
 O         2.090490         3.126174        -2.851582
 C         2.774795         1.882145        -2.681127
 C         3.430463         1.378588        -1.326344
 C         2.500303         0.471219        -0.492011
 O         1.807650         1.044878         0.587327
 H         0.276131        -1.625075        -1.006069
 H         0.123878        -1.213342         0.677162
 H        -0.824745        -0.472500        -0.455105
 H        -0.635358         1.573299        -1.811946
 H         0.427928         2.592522        -1.004818
 H         0.811276         1.496300        -3.781592
 H         3.278836         1.732725        -3.625986
 H         4.213244         0.697367        -1.610832
 H         3.853545         2.216610        -0.828723
 H         3.060903        -0.434441        -0.210407
