19
Iteration:  4834charge 0 multiplicity 1
 C         0.200184        -0.500610        -0.148906
 C         1.099293         0.620819        -0.713656
 C         0.435177         1.235405        -1.854981
 C         1.313608         2.064462        -2.762830
 O         2.159784         3.124389        -2.267112
 C         2.767228         1.876920        -2.698739
 C         3.431718         1.146983        -1.554235
 C         2.519481         0.434081        -0.592560
 O         1.702656         1.364223         0.325929
 H        -0.186004        -1.026457        -0.985706
 H         1.007438        -1.034057         0.447860
 H        -0.600433        -0.097151         0.597838
 H         0.032037         0.277679        -2.457555
 H        -0.560497         1.776314        -1.636219
 H         0.875943         2.278396        -3.702450
 H         3.275718         1.829735        -3.690495
 H         4.071715         0.370267        -1.918589
 H         4.082342         1.820249        -0.991824
 H         3.036462        -0.394129        -0.077371
