19
Iteration:  3532charge 0 multiplicity 1
 C         0.105722        -0.452914        -0.045101
 C         1.019434         0.561875        -0.685240
 C         0.412263         1.275039        -1.898676
 C         1.404963         1.941828        -2.771643
 O         2.019046         3.159205        -2.324812
 C         2.864704         1.998675        -2.650801
 C         3.523058         1.185950        -1.570658
 C         2.539428         0.412397        -0.672625
 O         1.780491         1.266081         0.350893
 H        -0.028321        -1.354393        -0.662406
 H         0.481572        -0.796746         0.932721
 H        -0.844626         0.151059         0.173555
 H        -0.074042         0.377252        -2.483394
 H        -0.379806         1.949081        -1.668252
 H         0.945597         1.972860        -3.764298
 H         3.456190         2.171160        -3.579708
 H         4.126955         0.401213        -2.036769
 H         4.184610         1.891217        -1.093102
 H         2.939115        -0.490363        -0.084582
