19
Iteration:  2939
 C         0.164488        -0.376235        -0.026417
 C         1.099975         0.560581        -0.736155
 C         0.527726         1.031255        -2.035056
 C         1.301859         2.098768        -2.728474
 O         1.992573         3.032778        -1.954792
 C         2.730850         1.934020        -2.605192
 C         3.469438         1.026843        -1.654125
 C         2.636252         0.498493        -0.532884
 O         1.760903         1.521411         0.004899
 H        -0.150644        -1.183069        -0.700558
 H         0.511766        -0.833215         1.019862
 H        -0.766897         0.182934         0.148129
 H         0.274063         0.100993        -2.714986
 H        -0.466871         1.575992        -1.677472
 H         1.035425         2.460990        -3.670825
 H         3.233717         2.228475        -3.490220
 H         3.778983         0.157644        -2.288960
 H         4.427271         1.572554        -1.244334
 H         2.934499        -0.260119         0.252489
