19
Iteration:   927
 C         0.210375        -0.607761        -0.035087
 C         1.039982         0.575678        -0.657800
 C         0.290552         1.549543        -1.647597
 C         1.207250         2.377958        -2.472113
 O         2.373759         3.074709        -2.024383
 C         2.588312         1.887593        -2.790445
 C         3.333631         0.929290        -2.003767
 C         2.481120         0.400505        -0.880628
 O         2.018430         1.211457         0.225614
 H        -0.734664        -0.264174         0.341972
 H         0.046282        -1.503362        -0.592498
 H         1.008741        -0.939845         0.858057
 H        -0.121986         1.014217        -2.529586
 H        -0.563579         2.042744        -1.159325
 H         0.662001         2.842284        -3.383058
 H         2.958859         2.177916        -3.724870
 H         3.628885         0.004409        -2.532007
 H         4.249308         1.410419        -1.514396
 H         2.825946        -0.567522        -0.514603
