19
Iteration:  4313
 C         0.021658        -0.479112         0.036176
 C         1.031063         0.516175        -0.714629
 C         0.553716         1.096296        -2.038873
 C         1.356986         2.038452        -2.815949
 O         2.004522         3.117112        -2.033045
 C         2.807567         2.079275        -2.581534
 C         3.456702         0.971833        -1.735877
 C         2.517838         0.537784        -0.602818
 O         1.880062         1.495754         0.234959
 H         0.060154        -1.467590        -0.506831
 H         0.275070        -0.516225         1.179715
 H        -0.914052        -0.061924        -0.057449
 H         0.370509         0.097842        -2.648335
 H        -0.466671         1.399435        -1.939083
 H         1.165975         2.162065        -3.924761
 H         3.399957         2.479969        -3.381313
 H         3.547668         0.223374        -2.484206
 H         4.423667         1.183199        -1.330649
 H         3.073098        -0.273177        -0.072566
