19
Iteration:  2562charge 0 multiplicity 1
 C         0.085731        -0.385494        -0.045745
 C         1.099095         0.602085        -0.763799
 C         0.369200         1.273217        -1.871402
 C         1.323323         1.927456        -2.834504
 O         2.017330         3.048821        -2.213591
 C         2.782783         1.972736        -2.551058
 C         3.454830         1.126983        -1.568399
 C         2.641409         0.447446        -0.621849
 O         1.843798         1.334094         0.190098
 H         0.283127        -1.503307        -0.355119
 H         0.321987        -0.201287         1.083016
 H        -0.979102        -0.348855        -0.403540
 H        -0.104027         0.463162        -2.377112
 H        -0.404195         1.942351        -1.369757
 H         1.078907         1.959376        -3.874876
 H         3.494436         2.420250        -3.309323
 H         4.084849         0.394003        -2.089112
 H         4.348349         1.749088        -1.142912
 H         3.054168        -0.425344        -0.093263
