19
Iteration:  4032
 C         0.146343        -0.587169        -0.191085
 C         1.046702         0.605407        -0.628754
 C         0.407445         1.271320        -1.751839
 C         1.313004         2.028077        -2.724726
 O         2.165305         3.165854        -2.488324
 C         2.796942         1.925404        -2.730147
 C         3.486352         1.229658        -1.554775
 C         2.465221         0.452334        -0.563014
 O         1.779830         1.314598         0.420474
 H         0.159606        -1.251853        -1.051822
 H         0.612479        -1.263006         0.649242
 H        -0.884695        -0.232055         0.134873
 H         0.038417         0.397540        -2.285186
 H        -0.454162         1.932587        -1.474445
 H         0.897350         2.112832        -3.709745
 H         3.407105         1.693779        -3.608464
 H         4.141856         0.456631        -2.003383
 H         4.115626         1.995703        -1.096872
 H         2.935860        -0.471481        -0.121642
