19
Iteration:  4457
 C         0.135246        -0.722124        -0.369491
 C         1.077603         0.621993        -0.636016
 C         0.377948         1.535052        -1.618822
 C         1.321658         1.889020        -2.775255
 O         2.140784         3.037584        -2.449477
 C         2.802562         1.809523        -2.735952
 C         3.478437         1.244234        -1.539225
 C         2.521414         0.576252        -0.516651
 O         1.770631         1.356354         0.421031
 H         0.558689        -1.370186        -1.192767
 H         0.417479        -1.250168         0.570874
 H        -0.989651        -0.566040        -0.496070
 H        -0.591798         1.057020        -2.025818
 H         0.022919         2.437864        -1.330520
 H         0.864972         1.903425        -3.812821
 H         3.581354         1.910926        -3.521949
 H         4.229120         0.568383        -1.823044
 H         3.893135         2.055330        -0.964135
 H         2.888607        -0.347224        -0.035758
