19
Iteration:  1629
 C         0.292688        -0.632312        -0.146067
 C         1.049944         0.557298        -0.706037
 C         0.364341         1.412842        -1.729719
 C         1.271136         2.057184        -2.751928
 O         2.185484         3.046524        -2.233286
 C         2.733027         1.819616        -2.755336
 C         3.462634         1.097037        -1.608339
 C         2.519589         0.559921        -0.587959
 O         1.736933         1.417133         0.237175
 H        -0.382713        -0.278074         0.699428
 H        -0.339799        -1.102960        -0.806750
 H         0.994058        -1.395826         0.148270
 H        -0.369499         0.780807        -2.252004
 H        -0.157612         2.202173        -1.280836
 H         0.807838         2.304711        -3.797653
 H         3.263227         1.960689        -3.787650
 H         4.155304         0.289122        -1.839646
 H         4.058261         1.821766        -1.044986
 H         2.927433        -0.308281        -0.063677
