19
Iteration:  3231
 C         0.193844        -0.706834        -0.422095
 C         1.068438         0.622955        -0.603603
 C         0.420831         1.775036        -1.539953
 C         1.259932         1.962692        -2.806014
 O         2.175131         2.993347        -2.942010
 C         2.824857         1.730718        -2.608981
 C         3.336179         1.519122        -1.255505
 C         2.532537         0.475169        -0.568719
 O         1.810373         1.000237         0.566127
 H         0.408128        -1.354264        -1.305062
 H         0.517495        -1.251154         0.552127
 H        -0.839484        -0.546117        -0.318381
 H        -0.678259         1.705033        -1.809015
 H         0.388877         2.768032        -0.890262
 H         0.845423         1.633948        -3.769582
 H         3.190333         1.374592        -3.545148
 H         4.395441         1.366664        -1.331600
 H         3.417879         2.485651        -0.776648
 H         2.985395        -0.491346        -0.529532
