19
Iteration:  4012charge 0 multiplicity 1
 C         0.122659        -0.532898        -0.064605
 C         1.076159         0.483967        -0.640336
 C         0.481334         1.296264        -1.851205
 C         1.374974         1.988975        -2.860166
 O         2.030703         3.222184        -2.380130
 C         2.822554         2.011659        -2.695035
 C         3.451631         1.088713        -1.585513
 C         2.558757         0.505413        -0.559940
 O         1.742885         1.274961         0.378177
 H         0.110267        -1.407836        -0.589543
 H         0.346325        -0.792572         0.968852
 H        -0.816980         0.043424         0.010240
 H        -0.112854         0.567804        -2.557184
 H        -0.214138         2.005470        -1.611306
 H         0.857633         1.954519        -3.792993
 H         3.567738         2.108811        -3.529577
 H         3.889720         0.325905        -2.200574
 H         4.310934         1.571420        -1.092628
 H         3.060114        -0.282949         0.121320
