19
Iteration:  2834
 C         0.224423        -0.719550        -0.290066
 C         1.111768         0.497126        -0.641733
 C         0.382794         1.397089        -1.669548
 C         1.275686         2.040299        -2.742266
 O         2.199525         3.101475        -2.432341
 C         2.732172         1.775826        -2.763960
 C         3.517323         1.214028        -1.535641
 C         2.525269         0.540377        -0.471935
 O         1.675674         1.471623         0.339780
 H        -0.025658        -1.222079        -1.262376
 H         0.772740        -1.479968         0.293402
 H        -0.698417        -0.431334         0.293229
 H        -0.468748         0.916954        -2.218850
 H        -0.092862         2.128869        -1.080075
 H         0.740430         2.201029        -3.810159
 H         3.253729         1.726915        -3.826689
 H         4.204636         0.407015        -1.913837
 H         4.106852         2.050513        -1.071713
 H         3.006793        -0.254933         0.074011
