19
Iteration:  2779charge 0 multiplicity 1
 C         0.301670        -0.666778        -0.267879
 C         1.049133         0.561364        -0.609361
 C         0.458941         1.542217        -1.674632
 C         1.288908         1.972505        -2.848010
 O         2.097228         3.185198        -2.630633
 C         2.753687         1.847143        -2.614359
 C         3.458717         1.140602        -1.490762
 C         2.491731         0.514933        -0.518069
 O         1.711391         1.263557         0.453467
 H         0.422931        -1.450900        -1.011557
 H         0.740957        -1.114275         0.669467
 H        -0.752682        -0.358925        -0.052526
 H        -0.503162         1.083934        -2.178242
 H         0.106655         2.409730        -1.162953
 H         0.904965         1.817816        -3.957750
 H         3.367167         1.843341        -3.613687
 H         4.123240         0.320848        -1.909145
 H         4.136190         1.879868        -0.973457
 H         2.912628        -0.402195        -0.087431
