19
Iteration:  4671charge 0 multiplicity 1
 C         0.130288        -0.641711        -0.320933
 C         1.021213         0.493992        -0.579276
 C         0.504151         1.614196        -1.565847
 C         1.390792         1.867067        -2.789039
 O         2.086546         3.169560        -2.813267
 C         2.901109         1.927877        -2.804922
 C         3.407192         1.357281        -1.370680
 C         2.487919         0.494422        -0.528253
 O         1.699373         1.087799         0.524451
 H        -0.659212        -0.927543        -1.055415
 H         0.749903        -1.598204        -0.192963
 H        -0.295347        -0.601150         0.752971
 H        -0.450799         1.434316        -1.869832
 H         0.280073         2.598362        -0.985376
 H         0.985572         1.423272        -3.681672
 H         3.597148         1.841800        -3.608148
 H         4.335753         0.712020        -1.603317
 H         3.785732         2.220637        -0.746557
 H         3.015226        -0.432941        -0.278814
