19
Iteration:  1595
 C         0.207242        -0.610362        -0.028290
 C         1.002707         0.551559        -0.703809
 C         0.394757         1.410674        -1.762634
 C         1.347491         2.030241        -2.771635
 O         2.053178         3.200543        -2.334205
 C         2.780516         1.968444        -2.662332
 C         3.502845         1.041569        -1.605340
 C         2.505876         0.481830        -0.639767
 O         1.846652         1.280441         0.242008
 H        -0.888282        -0.377232         0.197704
 H         0.298549        -1.416065        -0.611269
 H         0.541698        -0.656132         1.040689
 H        -0.347763         0.763694        -2.321532
 H        -0.131162         2.182923        -1.299188
 H         0.942631         2.100311        -3.866060
 H         3.238459         1.991902        -3.737055
 H         4.037049         0.186250        -2.009156
 H         4.182684         1.671747        -1.034900
 H         2.868272        -0.476524        -0.189090
