19
Iteration:  1178charge 0 multiplicity 1
 C         0.206117        -0.490037         0.202238
 C         1.042461         0.528574        -0.704353
 C         0.306398         1.461163        -1.834089
 C         1.337638         2.196533        -2.659083
 O         2.130950         3.193958        -1.970479
 C         2.780555         2.056706        -2.626975
 C         3.337544         0.928101        -1.933639
 C         2.513856         0.239218        -0.819390
 O         1.974896         1.232359         0.086569
 H         0.601720        -1.461779         0.008025
 H         0.238969        -0.239393         1.239414
 H        -1.000298        -0.431386        -0.101892
 H        -0.380588         0.862979        -2.438396
 H        -0.419791         2.224390        -1.340013
 H         1.001446         2.516453        -3.740515
 H         3.319920         2.277862        -3.558492
 H         3.434900         0.113018        -2.649162
 H         4.372365         1.101366        -1.704359
 H         2.887500        -0.676667        -0.449773
