19
Iteration:  3884
 C         0.186430        -0.583761        -0.052030
 C         1.045122         0.563669        -0.658080
 C         0.429660         1.250428        -1.910881
 C         1.363023         1.997461        -2.855679
 O         2.051337         3.107821        -2.247421
 C         2.806015         1.956001        -2.594595
 C         3.442929         1.059745        -1.501231
 C         2.470338         0.487195        -0.584589
 O         1.836911         1.475522         0.195256
 H        -0.248701        -1.209021        -0.944049
 H         0.809907        -1.204927         0.566651
 H        -0.753144        -0.221378         0.429287
 H        -0.029041         0.573366        -2.494417
 H        -0.314421         2.093618        -1.628089
 H         0.956919         2.214677        -3.865738
 H         3.470265         2.088487        -3.478371
 H         3.889465         0.314651        -2.199545
 H         4.256013         1.691405        -1.102116
 H         2.863920        -0.288223         0.051816
