19
Iteration:  3614
 C         0.221347        -0.526010         0.109114
 C         0.989648         0.516329        -0.666112
 C         0.534138         1.034304        -2.044016
 C         1.479350         2.092992        -2.790204
 O         2.103450         3.162147        -2.048524
 C         2.911959         2.058707        -2.702438
 C         3.309641         0.950019        -1.769558
 C         2.422354         0.599800        -0.576236
 O         1.678026         1.510893         0.224681
 H        -0.001124        -1.314001        -0.646490
 H         0.761998        -0.956701         0.891808
 H        -0.726646        -0.244557         0.459392
 H         0.435874         0.129068        -2.673822
 H        -0.553541         1.575494        -1.981478
 H         1.078346         2.433009        -3.816551
 H         3.494603         2.237649        -3.615418
 H         3.333155        -0.052527        -2.269120
 H         4.360316         1.124555        -1.403327
 H         2.924478        -0.248365         0.130887
