19
Iteration:  2224
 C         0.044131        -0.422605        -0.247809
 C         1.116762         0.534723        -0.726293
 C         0.467328         1.317050        -1.811075
 C         1.371784         1.927885        -2.862173
 O         1.971428         3.037178        -2.314975
 C         2.789663         1.921892        -2.695043
 C         3.456775         1.167901        -1.510310
 C         2.612134         0.473452        -0.489438
 O         1.826236         1.323579         0.348972
 H        -0.407794        -1.109309        -0.961498
 H         0.328268        -0.965392         0.754721
 H        -0.665277         0.225151         0.266673
 H        -0.312909         0.666660        -2.224151
 H         0.087558         2.139870        -1.233780
 H         0.985903         2.054508        -3.919300
 H         3.437715         2.128502        -3.534647
 H         4.284103         0.558711        -1.938319
 H         4.005665         1.981510        -0.988959
 H         3.224774        -0.353200        -0.047835
