19
Iteration:   677
 C         0.070560        -0.426055         0.040114
 C         1.074234         0.553940        -0.657739
 C         0.488219         1.578539        -1.621399
 C         1.272011         2.272055        -2.709916
 O         2.081328         3.316064        -2.270791
 C         2.665089         1.987478        -2.717577
 C         3.350793         1.022256        -1.777389
 C         2.497412         0.179608        -0.882120
 O         2.116047         0.900846         0.313065
 H        -0.533832        -0.070599         0.809020
 H        -0.647108        -0.766668        -0.657526
 H         0.729674        -1.325783         0.421435
 H        -0.324601         1.078824        -2.126326
 H        -0.058866         2.297334        -1.030546
 H         0.618388         2.318294        -3.602631
 H         3.195782         2.197500        -3.747058
 H         3.921292         0.312816        -2.362740
 H         4.122934         1.517043        -1.185911
 H         2.845738        -0.897895        -0.668248
