19
Iteration:  4820charge 0 multiplicity 1
 C         0.278184        -0.622499        -0.170218
 C         0.978610         0.589763        -0.618633
 C         0.389423         1.361398        -1.807287
 C         1.333199         1.996909        -2.767109
 O         2.165162         3.120805        -2.360493
 C         2.795547         1.882647        -2.692821
 C         3.476833         1.125763        -1.548983
 C         2.466336         0.533876        -0.554178
 O         1.744599         1.367182         0.312098
 H        -0.072433        -1.280680        -0.977291
 H         0.833553        -1.374769         0.368910
 H        -0.706054        -0.328545         0.338379
 H        -0.266522         0.722779        -2.491995
 H        -0.234955         2.100592        -1.392579
 H         0.905958         2.219219        -3.835789
 H         3.496697         2.042429        -3.599225
 H         4.074157         0.362385        -2.000191
 H         4.091955         1.878683        -1.032489
 H         2.739832        -0.409746        -0.076596
