19
Iteration:  1934charge 0 multiplicity 1
 C         0.196740        -0.543134        -0.101414
 C         1.121797         0.569218        -0.753454
 C         0.456805         1.375298        -1.789718
 C         1.256660         1.944893        -2.832335
 O         2.131360         3.053705        -2.355970
 C         2.751531         1.834457        -2.707759
 C         3.495539         1.249760        -1.470180
 C         2.537228         0.433090        -0.579713
 O         1.690980         1.380101         0.266949
 H         0.485516        -1.504737        -0.656088
 H         0.553992        -0.825913         0.823730
 H        -0.894187        -0.230703        -0.221382
 H        -0.342135         0.798711        -2.153355
 H         0.100658         2.292355        -1.222624
 H         0.761141         2.232555        -3.707910
 H         3.319301         1.870721        -3.641785
 H         4.420806         0.662228        -1.651242
 H         3.824274         2.039655        -0.756601
 H         2.850707        -0.491550         0.031080
