19
Iteration:   335charge 0 multiplicity 1
 C         0.126550        -0.381805         0.130065
 C         1.095209         0.443170        -0.778161
 C         0.377378         1.462002        -1.692718
 C         1.273865         2.213216        -2.601872
 O         2.149431         3.145688        -2.029534
 C         2.695967         2.037222        -2.690523
 C         3.416984         0.943249        -1.914878
 C         2.573045         0.270362        -0.793844
 O         1.901528         1.152711         0.065303
 H         0.576744        -1.258867         0.345825
 H        -0.114733         0.195177         1.061068
 H        -0.697104        -0.736002        -0.416774
 H        -0.511277         1.147056        -2.228765
 H         0.054522         2.224441        -0.907110
 H         0.661674         2.650772        -3.502766
 H         3.291014         2.288052        -3.648359
 H         3.769763         0.212686        -2.671701
 H         4.345060         1.396864        -1.462528
 H         3.141501        -0.603105        -0.426621
