19
Iteration:  1337
 C         0.040870        -0.538898        -0.163674
 C         1.074767         0.562787        -0.583483
 C         0.424221         1.481657        -1.583587
 C         1.243537         2.159663        -2.716760
 O         2.184301         3.127077        -2.289423
 C         2.683741         1.891677        -2.792992
 C         3.417833         1.057373        -1.793514
 C         2.627103         0.449159        -0.606988
 O         1.934510         1.208250         0.331318
 H        -0.687260        -0.164174         0.714979
 H        -0.471661        -0.678008        -1.274729
 H         0.404837        -1.532851         0.080337
 H         0.016697         0.611228        -2.232845
 H        -0.309863         2.094295        -1.077944
 H         0.661259         2.336500        -3.557224
 H         3.185797         1.900586        -3.760581
 H         3.859859         0.271493        -2.351400
 H         4.226542         1.705145        -1.445045
 H         3.113095        -0.518964        -0.253247
