19
Iteration:   358charge 0 multiplicity 1
 C         0.107159        -0.565759        -0.058546
 C         1.075193         0.509212        -0.658479
 C         0.357619         1.483443        -1.572022
 C         1.265735         2.210138        -2.652057
 O         2.195028         3.220196        -2.120868
 C         2.714369         2.018142        -2.705184
 C         3.363188         0.847544        -1.944365
 C         2.493432         0.376220        -0.764157
 O         2.046344         1.252845         0.240279
 H         0.566003        -1.370661         0.317153
 H        -0.478370        -0.058673         0.717045
 H        -0.511101        -1.028549        -0.855895
 H        -0.334379         0.844940        -2.189631
 H        -0.253784         2.281382        -1.065396
 H         0.619313         2.565455        -3.479889
 H         3.266978         2.257735        -3.639777
 H         3.416739         0.013493        -2.677179
 H         4.401929         1.089659        -1.692133
 H         2.973673        -0.557263        -0.466229
