19
Iteration:  2342charge 0 multiplicity 1
 C         0.199838        -0.501282        -0.176497
 C         1.121087         0.627154        -0.710949
 C         0.404776         1.261113        -1.935822
 C         1.274306         2.002007        -2.865549
 O         2.069423         2.991419        -2.030566
 C         2.730767         1.885525        -2.634716
 C         3.536403         0.919841        -1.660280
 C         2.563180         0.556629        -0.513510
 O         1.751296         1.587436         0.168790
 H         0.513568        -1.319206        -0.714213
 H         0.379584        -0.796950         0.963179
 H        -0.845212        -0.339603        -0.144220
 H         0.111187         0.410580        -2.458412
 H        -0.540924         1.781554        -1.431497
 H         0.852710         2.474548        -3.674282
 H         3.232305         2.064732        -3.588814
 H         4.186262         0.062639        -1.789293
 H         4.214650         1.692944        -1.177736
 H         2.834171        -0.148641         0.382906
