19
Iteration:  4188
 C         0.268330        -0.676671        -0.163956
 C         1.041872         0.493471        -0.630385
 C         0.460902         1.549264        -1.718595
 C         1.369912         1.996958        -2.854131
 O         2.110707         3.214901        -2.695602
 C         2.828701         1.915518        -2.661181
 C         3.396281         1.194445        -1.433921
 C         2.486766         0.436924        -0.506241
 O         1.669835         1.223347         0.444878
 H         0.023870        -1.300682        -1.020514
 H         0.867216        -1.047362         0.616158
 H        -0.801650        -0.294162         0.215819
 H        -0.412287         0.968762        -2.244880
 H        -0.006450         2.265311        -1.091502
 H         1.134566         1.787966        -3.881681
 H         3.507301         1.887206        -3.574193
 H         4.170911         0.544360        -1.797145
 H         3.992928         1.958043        -0.946010
 H         2.832643        -0.548662        -0.037079
