19
Iteration:  3021charge 0 multiplicity 1
 C         0.123376        -0.570924        -0.136756
 C         1.062403         0.478912        -0.740077
 C         0.439802         1.339230        -1.787275
 C         1.324898         1.987173        -2.747877
 O         2.110190         3.164896        -2.467670
 C         2.761431         1.881896        -2.640993
 C         3.501418         1.228845        -1.473827
 C         2.537032         0.497221        -0.531593
 O         1.769759         1.316052         0.311573
 H         0.020732        -1.409432        -0.879933
 H         0.616444        -0.988993         0.694509
 H        -0.871723        -0.208191         0.145453
 H        -0.198195         0.728399        -2.421428
 H        -0.327644         2.118994        -1.361303
 H         0.889085         2.088324        -3.814390
 H         3.386552         1.938332        -3.581966
 H         4.201494         0.471014        -2.005495
 H         4.196394         1.849536        -0.990349
 H         3.038243        -0.240017         0.024122
