19
Iteration:  4715charge 0 multiplicity 1
 C         0.177049        -0.575515        -0.238386
 C         1.064265         0.556531        -0.753970
 C         0.484559         1.608509        -1.599895
 C         1.334526         1.888937        -2.804838
 O         2.121536         3.116376        -2.724514
 C         2.820556         1.858783        -2.721104
 C         3.400258         1.385512        -1.357317
 C         2.511827         0.420214        -0.529042
 O         1.744902         1.062943         0.446765
 H        -0.088400        -1.081150        -1.190418
 H         0.665215        -1.253989         0.506231
 H        -0.713399        -0.205791         0.309462
 H        -0.403189         1.273052        -1.945279
 H         0.113820         2.481798        -0.996192
 H         0.873781         1.949562        -3.750951
 H         3.381268         1.520306        -3.537621
 H         4.494287         1.107098        -1.431775
 H         3.410762         2.292752        -0.704166
 H         2.923133        -0.530003        -0.160687
