19
Iteration:  3711charge 0 multiplicity 1
 C         0.223620        -0.583785        -0.161066
 C         1.043462         0.517932        -0.695359
 C         0.483206         1.451432        -1.722225
 C         1.308964         1.981576        -2.792216
 O         2.159391         3.221618        -2.662464
 C         2.820511         1.954799        -2.674470
 C         3.430322         1.212037        -1.454926
 C         2.515637         0.485784        -0.518280
 O         1.678687         1.180248         0.463507
 H        -0.172677        -1.303648        -0.938234
 H         0.696980        -1.109198         0.638961
 H        -0.601221        -0.084741         0.292213
 H        -0.213158         0.658326        -2.289981
 H        -0.238859         2.152953        -1.209592
 H         0.856664         1.763384        -3.821020
 H         3.346339         1.924483        -3.645527
 H         3.871126         0.378647        -2.044585
 H         4.208642         1.619897        -0.832313
 H         2.964166        -0.510986        -0.135300
