19
Iteration:   533charge 0 multiplicity 1
 C         0.205956        -0.477203         0.008715
 C         1.005705         0.521387        -0.742271
 C         0.294820         1.456497        -1.617510
 C         1.242757         2.312368        -2.496337
 O         2.260425         3.144011        -1.975169
 C         2.709025         1.997457        -2.709212
 C         3.375734         0.816700        -1.990064
 C         2.527582         0.323578        -0.872370
 O         1.980571         1.245971         0.086439
 H        -0.826999        -0.181020        -0.049931
 H         0.268026        -1.553659        -0.321503
 H         0.581137        -0.446183         1.146072
 H        -0.510098         1.064331        -2.165553
 H        -0.252735         2.131414        -0.899526
 H         0.691328         2.745470        -3.347119
 H         3.162769         2.264582        -3.736091
 H         3.462663         0.032029        -2.760548
 H         4.409104         1.062158        -1.638675
 H         2.867894        -0.619275        -0.364362
