19
Iteration:  4785charge 0 multiplicity 1
 C         0.315063        -0.717405        -0.234201
 C         1.003964         0.507964        -0.681941
 C         0.472763         1.542211        -1.638192
 C         1.340205         1.954587        -2.788451
 O         2.133305         3.152647        -2.565552
 C         2.778934         1.890881        -2.658356
 C         3.453104         1.146071        -1.534497
 C         2.489433         0.546335        -0.466182
 O         1.633823         1.291102         0.367937
 H         0.445770        -1.422828        -1.119176
 H         0.535361        -0.905863         0.793662
 H        -0.714910        -0.417494        -0.156527
 H        -0.505338         1.355029        -2.025724
 H         0.383242         2.486816        -1.158528
 H         0.792176         1.988851        -3.838411
 H         3.405745         1.890210        -3.582647
 H         4.014799         0.259131        -1.945281
 H         4.290132         1.758783        -1.138021
 H         2.866638        -0.391311        -0.035273
