19
Iteration:  1357charge 0 multiplicity 1
 C         0.128125        -0.500335        -0.083147
 C         1.064069         0.497761        -0.669904
 C         0.387689         1.444017        -1.726345
 C         1.259142         2.144802        -2.687201
 O         2.157105         3.244676        -2.371194
 C         2.717801         1.942583        -2.746228
 C         3.440172         1.039219        -1.677482
 C         2.503767         0.313382        -0.694744
 O         1.943912         1.200785         0.359107
 H         0.235618        -0.264073         1.039177
 H        -0.912655        -0.545674        -0.614608
 H         0.557432        -1.471256        -0.027875
 H        -0.366017         0.912592        -2.247422
 H         0.014173         2.293331        -1.112734
 H         0.757462         2.267007        -3.659067
 H         3.131409         1.987169        -3.676856
 H         3.935747         0.268219        -2.242080
 H         4.089744         1.550447        -0.979785
 H         2.973563        -0.552107        -0.254620
