19
Iteration:  2408
 C         0.087037        -0.545299         0.096192
 C         1.035606         0.424831        -0.728219
 C         0.409173         1.249079        -1.902805
 C         1.409006         2.016748        -2.838974
 O         2.115799         3.265657        -2.470853
 C         2.884520         2.021353        -2.690664
 C         3.369638         1.180682        -1.505174
 C         2.546468         0.443723        -0.543419
 O         1.787998         1.278107         0.329509
 H        -0.430038        -1.041632        -0.668906
 H         0.566307        -1.375398         0.767241
 H        -0.474462         0.161686         0.717092
 H        -0.033291         0.568934        -2.564524
 H        -0.503902         1.876922        -1.637465
 H         1.066589         2.001318        -3.821764
 H         3.365996         1.927431        -3.668555
 H         4.109982         0.479487        -1.926521
 H         3.949895         1.857586        -0.780052
 H         3.061923        -0.494935        -0.190092
