19
Iteration:  3254
 C         0.216719        -0.620984        -0.563776
 C         1.060213         0.640620        -0.575057
 C         0.472898         1.688991        -1.387350
 C         1.271364         1.804847        -2.667394
 O         2.189559         3.048326        -2.993572
 C         2.867557         1.772721        -2.708722
 C         3.383562         1.515916        -1.324533
 C         2.472056         0.561302        -0.545694
 O         1.714930         1.017316         0.605139
 H         0.190082        -1.058878        -1.583838
 H         0.698361        -1.413057         0.127556
 H        -0.731349        -0.456078        -0.175563
 H        -0.572707         1.252007        -1.652087
 H         0.072646         2.617188        -0.840088
 H         0.786372         1.532272        -3.598849
 H         3.119293         1.175317        -3.600907
 H         4.323591         1.056999        -1.497256
 H         3.794588         2.409059        -0.813142
 H         2.952356        -0.383557        -0.275124
