19
Iteration:  4998charge 0 multiplicity 1
 C         0.330927        -0.563827        -0.193623
 C         1.031376         0.635764        -0.713690
 C         0.319407         1.478858        -1.816509
 C         1.365811         1.976432        -2.831315
 O         2.134106         3.145405        -2.412913
 C         2.771960         1.824100        -2.601340
 C         3.475694         1.112374        -1.468288
 C         2.498805         0.470886        -0.553935
 O         1.678619         1.299648         0.340504
 H         0.160709        -1.303248        -0.964603
 H         1.007267        -1.090308         0.548351
 H        -0.673815        -0.566517         0.301963
 H        -0.438263         0.836582        -2.296911
 H        -0.217039         2.364900        -1.289388
 H         0.987765         2.063058        -3.890954
 H         3.415656         1.724546        -3.479962
 H         4.117922         0.366007        -1.993682
 H         4.221835         1.816070        -1.024829
 H         2.916637        -0.392407         0.004389
