19
Iteration:  3561
 C         0.095737        -0.438296        -0.014462
 C         1.106991         0.457719        -0.779310
 C         0.458907         1.153550        -1.998066
 C         1.351287         2.041739        -2.757881
 O         2.032664         3.043737        -2.045717
 C         2.784734         1.950174        -2.625774
 C         3.500871         1.065212        -1.601257
 C         2.556784         0.469312        -0.560853
 O         1.814093         1.522872         0.063708
 H        -0.416207        -1.336108        -0.552191
 H         0.611561        -0.779726         0.848738
 H        -0.800997         0.130874         0.345136
 H        -0.122700         0.430154        -2.523140
 H        -0.471904         1.694300        -1.603974
 H         0.795879         2.355083        -3.618372
 H         3.430562         2.246182        -3.454380
 H         4.089351         0.240062        -2.012408
 H         4.221780         1.861207        -1.237257
 H         2.890336        -0.150456         0.180732
