19
Iteration:  4935
 C         0.126097        -0.397323         0.001978
 C         1.060684         0.582296        -0.729205
 C         0.476795         1.044999        -2.008278
 C         1.311787         2.098674        -2.791298
 O         2.061100         3.080134        -2.018077
 C         2.841014         1.954854        -2.650260
 C         3.468547         1.054859        -1.681158
 C         2.495213         0.482193        -0.591792
 O         1.775706         1.462096         0.206068
 H         0.165874        -1.323811        -0.600988
 H         0.702649        -0.580097         0.892414
 H        -0.814719         0.081685         0.015644
 H         0.368261         0.201654        -2.781377
 H        -0.515415         1.297357        -1.903713
 H         0.841333         2.461630        -3.624890
 H         3.461829         2.158654        -3.490889
 H         3.794187         0.207375        -2.218576
 H         4.270037         1.522916        -1.146499
 H         3.007319        -0.392347        -0.127230
