19
Iteration:  1371charge 0 multiplicity 1
 C         0.243325        -0.539465         0.056648
 C         0.987079         0.530102        -0.779718
 C         0.368625         1.544007        -1.664266
 C         1.293699         2.118073        -2.785546
 O         2.127145         3.196252        -2.372567
 C         2.819721         1.990464        -2.666052
 C         3.404259         1.055290        -1.630153
 C         2.456251         0.328502        -0.716190
 O         1.918786         1.141701         0.265915
 H         0.386711        -0.328285         1.182139
 H        -0.948696        -0.427272         0.058204
 H         0.522809        -1.558254        -0.273515
 H        -0.437123         0.985468        -2.283195
 H        -0.290243         2.203214        -1.142041
 H         0.878575         2.287849        -3.731157
 H         3.418823         2.010477        -3.627482
 H         4.024662         0.374737        -2.180573
 H         4.146221         1.622316        -1.059012
 H         2.728864        -0.752395        -0.407097
