19
Iteration:  1336
 C         0.038560        -0.541711        -0.175085
 C         1.072477         0.558823        -0.581951
 C         0.424211         1.485212        -1.586143
 C         1.237184         2.160919        -2.708124
 O         2.186772         3.112581        -2.286298
 C         2.687013         1.895284        -2.801345
 C         3.422079         1.059079        -1.797574
 C         2.627328         0.453067        -0.605731
 O         1.937698         1.212074         0.335216
 H        -0.683985        -0.158293         0.694499
 H        -0.451103        -0.698569        -1.277115
 H         0.407018        -1.514359         0.137017
 H         0.051288         0.649673        -2.216124
 H        -0.330857         2.104243        -1.087780
 H         0.641503         2.339344        -3.575244
 H         3.149824         1.915639        -3.736773
 H         3.833157         0.260617        -2.356062
 H         4.221429         1.687133        -1.425899
 H         3.109559        -0.477242        -0.247478
