19
Iteration:  1118charge 0 multiplicity 1
 C         0.140831        -0.557153        -0.200507
 C         1.088360         0.623058        -0.625898
 C         0.325632         1.481042        -1.569587
 C         1.161952         2.260546        -2.608324
 O         2.279249         3.110065        -2.131392
 C         2.627954         1.899506        -2.824398
 C         3.393427         0.896901        -1.875695
 C         2.550749         0.418888        -0.738099
 O         2.019117         1.251174         0.312065
 H         0.584317        -1.415099         0.448919
 H        -0.683695        -0.168041         0.506024
 H        -0.252703        -0.962428        -1.045206
 H        -0.185460         0.776731        -2.238545
 H        -0.449871         2.008599        -1.081012
 H         0.633675         2.781579        -3.352829
 H         3.157535         2.090679        -3.873706
 H         3.918297         0.020092        -2.443975
 H         4.209053         1.621155        -1.489513
 H         2.877259        -0.655167        -0.389514
