19
Iteration:  2734
 C         0.066776        -0.464521        -0.131262
 C         1.085988         0.568658        -0.676507
 C         0.470329         1.352075        -1.720161
 C         1.355416         1.957463        -2.816408
 O         2.071802         3.137103        -2.462002
 C         2.790403         1.837191        -2.723977
 C         3.492819         1.379797        -1.479356
 C         2.569649         0.456053        -0.617704
 O         1.758593         1.135805         0.391989
 H         0.132933        -1.288703        -0.766788
 H         0.420749        -0.940093         0.874055
 H        -0.949266        -0.089383        -0.043332
 H        -0.242049         0.648640        -2.259659
 H        -0.213785         2.047057        -1.267816
 H         1.009059         1.862775        -3.945559
 H         3.339836         1.728228        -3.761756
 H         4.432012         0.923405        -1.932889
 H         3.775225         2.287937        -0.981538
 H         3.067819        -0.441439        -0.197187
