19
Iteration:  4621charge 0 multiplicity 1
 C         0.318732        -0.642989        -0.422964
 C         1.088232         0.560998        -0.690543
 C         0.405472         1.712826        -1.569199
 C         1.292116         1.989604        -2.767974
 O         2.196622         3.014651        -2.740191
 C         2.736002         1.698130        -2.693107
 C         3.399510         1.373556        -1.379322
 C         2.540941         0.533061        -0.478493
 O         1.682813         1.122442         0.542868
 H        -0.224807        -0.985910        -1.341565
 H         0.861752        -1.492066        -0.058518
 H        -0.390618        -0.575299         0.344659
 H        -0.714711         1.461207        -1.864615
 H         0.179285         2.574013        -1.033564
 H         0.735422         1.966468        -3.764748
 H         3.224500         1.369409        -3.648056
 H         4.367758         1.065811        -1.656240
 H         3.516117         2.296357        -0.858263
 H         3.039650        -0.435763        -0.332250
