19
Iteration:  3451
 C         0.254309        -0.703538        -0.424661
 C         1.069605         0.616109        -0.620855
 C         0.399623         1.621525        -1.590231
 C         1.212612         1.894592        -2.814048
 O         2.275593         3.043881        -2.555546
 C         2.685055         1.751182        -2.772938
 C         3.429908         1.314068        -1.444490
 C         2.534263         0.522600        -0.471158
 O         1.710749         1.263043         0.474024
 H         0.067143        -1.075958        -1.526426
 H         0.985975        -1.412123         0.102241
 H        -0.772586        -0.650916         0.041135
 H        -0.614068         1.325844        -1.856441
 H         0.430442         2.600072        -1.083931
 H         0.857628         1.643027        -3.792346
 H         3.216786         1.604845        -3.721465
 H         4.422385         0.875424        -1.583419
 H         3.593861         2.348828        -1.043271
 H         3.040961        -0.224307         0.042463
