19
Iteration:  3310
 C         0.246082        -0.693234        -0.458290
 C         1.040683         0.585557        -0.606265
 C         0.482941         1.754297        -1.464430
 C         1.328230         1.842657        -2.773969
 O         2.158041         3.002727        -2.944095
 C         2.802555         1.805803        -2.633734
 C         3.411369         1.499226        -1.361923
 C         2.492279         0.505867        -0.534196
 O         1.671258         1.058599         0.565787
 H        -0.342758        -0.701696        -1.390419
 H         0.859545        -1.609937        -0.198975
 H        -0.520178        -0.576490         0.255077
 H        -0.707404         1.621883        -1.563697
 H         0.805047         2.665100        -0.940176
 H         0.703193         1.546060        -3.586414
 H         3.411643         1.498827        -3.523379
 H         4.382097         1.094814        -1.499792
 H         3.468838         2.439311        -0.753027
 H         3.054484        -0.424508        -0.150891
