19
Iteration:  1408
 C         0.175018        -0.509780        -0.012458
 C         1.046231         0.523168        -0.725023
 C         0.369720         1.418135        -1.706892
 C         1.309155         2.092507        -2.726484
 O         2.137552         3.120020        -2.242284
 C         2.783570         1.959294        -2.735097
 C         3.421923         1.059815        -1.698680
 C         2.479476         0.393781        -0.669406
 O         1.895609         1.286883         0.234159
 H         0.801486        -1.194174         0.514544
 H        -0.477558        -0.072205         0.635728
 H        -0.480388        -1.155998        -0.739143
 H        -0.245555         0.679312        -2.276127
 H        -0.240932         2.202039        -1.185291
 H         0.716147         2.361680        -3.670318
 H         3.471399         2.213664        -3.669340
 H         4.056301         0.246118        -2.176680
 H         4.097459         1.722979        -1.085586
 H         2.790370        -0.606945        -0.317769
