19
Iteration:   457
 C         0.149918        -0.459016        -0.024966
 C         1.042235         0.595910        -0.671885
 C         0.350909         1.593197        -1.558272
 C         1.244534         2.226286        -2.672428
 O         2.101873         3.263791        -2.221803
 C         2.704996         1.999968        -2.747057
 C         3.375390         0.955676        -1.794838
 C         2.546469         0.218524        -0.838190
 O         2.103494         0.982755         0.272983
 H        -0.240974        -0.199595         0.864288
 H        -0.671039        -0.615716        -0.693155
 H         0.704293        -1.427635         0.167557
 H        -0.417833         1.027420        -2.063973
 H        -0.031202         2.448298        -0.985514
 H         0.562909         2.513139        -3.494919
 H         3.234159         2.161525        -3.703960
 H         3.597508         0.159517        -2.543922
 H         4.293346         1.425777        -1.408333
 H         2.757434        -0.858124        -0.649087
