19
Iteration:  1340charge 0 multiplicity 1
 C         0.042557        -0.526175        -0.135471
 C         1.086912         0.570499        -0.588599
 C         0.426397         1.458908        -1.590903
 C         1.263987         2.150458        -2.725569
 O         2.178061         3.176006        -2.301025
 C         2.674936         1.879788        -2.770027
 C         3.403469         1.054831        -1.775654
 C         2.623853         0.427555        -0.618069
 O         1.926241         1.199942         0.325784
 H        -0.628875        -0.219921         0.670648
 H        -0.518786        -0.617049        -1.093935
 H         0.424948        -1.583280        -0.068983
 H        -0.115376         0.608650        -2.240656
 H        -0.285102         2.091590        -1.057393
 H         0.664346         2.367136        -3.612512
 H         3.272473         1.875149        -3.812054
 H         3.965463         0.250645        -2.348396
 H         4.250434         1.750198        -1.483399
 H         3.080440        -0.575988        -0.276411
