19
Iteration:  2032
 C         0.130714        -0.431797        -0.021902
 C         1.109577         0.592222        -0.703936
 C         0.424231         1.168524        -1.974134
 C         1.387961         1.922248        -2.735342
 O         2.008087         3.020495        -2.057537
 C         2.818889         1.987187        -2.602326
 C         3.487311         1.069808        -1.633478
 C         2.584173         0.472937        -0.575262
 O         1.721786         1.521092         0.045179
 H        -0.305939        -1.221192        -0.710364
 H         0.588007        -0.906436         0.778782
 H        -0.705013         0.196179         0.409773
 H         0.202526         0.331461        -2.545769
 H        -0.516174         1.721738        -1.671219
 H         0.992022         2.148482        -3.764985
 H         3.367410         2.253864        -3.605910
 H         4.092504         0.277339        -2.129021
 H         4.259518         1.654187        -1.073381
 H         3.064929        -0.340630         0.079702
