19
Iteration:   356charge 0 multiplicity 1
 C         0.101519        -0.563577        -0.056865
 C         1.077188         0.491089        -0.667303
 C         0.347520         1.476852        -1.573945
 C         1.279838         2.205676        -2.662182
 O         2.196145         3.229938        -2.105025
 C         2.708149         2.015461        -2.693367
 C         3.367689         0.852740        -1.939866
 C         2.499475         0.370296        -0.773761
 O         2.037372         1.254321         0.227545
 H         0.568293        -1.409635         0.385288
 H        -0.462825        -0.011568         0.753504
 H        -0.556454        -0.950406        -0.750578
 H        -0.358300         0.912802        -2.124185
 H        -0.219986         2.288467        -1.096344
 H         0.596418         2.534159        -3.542378
 H         3.243044         2.282075        -3.719052
 H         3.449368         0.033844        -2.671321
 H         4.460813         1.099734        -1.736997
 H         3.015520        -0.557728        -0.430510
