19
Iteration:  2269
 C         0.204348        -0.488089         0.043396
 C         0.985570         0.496048        -0.768746
 C         0.437411         1.262269        -1.928662
 C         1.385658         2.025035        -2.817082
 O         2.120214         3.170087        -2.296614
 C         2.848192         1.976858        -2.644889
 C         3.446408         1.111972        -1.530755
 C         2.445174         0.468641        -0.562427
 O         1.744391         1.349208         0.219560
 H        -0.237492        -1.364870        -0.540886
 H         0.809770        -1.007809         0.814648
 H        -0.555228         0.031969         0.672220
 H         0.135213         0.407950        -2.621802
 H        -0.413169         1.872473        -1.686570
 H         0.843742         2.165381        -3.833463
 H         3.587909         2.087033        -3.451006
 H         4.043899         0.276666        -1.984366
 H         4.191378         1.646128        -0.931255
 H         2.760301        -0.499329        -0.086436
