19
Iteration:  1749charge 0 multiplicity 1
 C         0.079770        -0.460947         0.093374
 C         1.072211         0.587394        -0.695754
 C         0.406400         1.079549        -2.026271
 C         1.315255         2.050637        -2.802657
 O         2.040647         3.071513        -2.106585
 C         2.836083         1.992938        -2.693545
 C         3.498327         1.128005        -1.592717
 C         2.573798         0.464911        -0.606939
 O         1.809877         1.459719         0.141838
 H         0.675024        -1.427721         0.314011
 H        -0.044405        -0.327780         1.124423
 H        -0.924570        -0.514700        -0.465008
 H         0.136672         0.110160        -2.644059
 H        -0.502452         1.592358        -1.753224
 H         0.938435         2.384238        -3.769245
 H         3.489488         2.255558        -3.450178
 H         3.988699         0.282330        -2.104245
 H         4.338414         1.669162        -1.144625
 H         2.947956        -0.475389        -0.164995
