19
Iteration:   248
 C         0.146417        -0.460124        -0.020950
 C         1.096847         0.510119        -0.710503
 C         0.393725         1.452921        -1.619555
 C         1.211137         2.255896        -2.634612
 O         2.231223         3.146649        -1.956851
 C         2.687501         2.063417        -2.697485
 C         3.304873         0.816965        -2.014469
 C         2.683764         0.361104        -0.739477
 O         1.934114         1.229541         0.109038
 H         0.483226        -0.694096         0.935942
 H        -0.917415         0.059499         0.136380
 H        -0.159720        -1.499343        -0.654646
 H        -0.396535         0.756173        -2.115186
 H        -0.141814         2.185017        -0.901426
 H         0.693626         2.665027        -3.570932
 H         3.072163         2.355694        -3.756280
 H         3.046670        -0.095353        -2.605528
 H         4.391814         0.922499        -1.882362
 H         3.043469        -0.526361        -0.158187
