19
Iteration:  3394charge 0 multiplicity 1
 C         0.101513        -0.660970        -0.332057
 C         1.030657         0.552665        -0.645696
 C         0.505392         1.640547        -1.506613
 C         1.312261         1.810276        -2.744356
 O         2.138668         3.108547        -2.854832
 C         2.827851         1.857011        -2.710411
 C         3.456766         1.503891        -1.358123
 C         2.545300         0.506146        -0.601813
 O         1.705876         1.030997         0.530479
 H        -0.031732        -1.405310        -1.171610
 H         0.367699        -1.248882         0.633709
 H        -0.898740        -0.262424        -0.122912
 H        -0.513285         1.637864        -1.651054
 H         0.642663         2.663050        -0.980817
 H         0.942043         1.462442        -3.752361
 H         3.388164         1.647492        -3.632788
 H         4.399431         0.898841        -1.541388
 H         3.841081         2.386913        -0.801839
 H         3.025940        -0.388533        -0.397494
