19
Iteration:  1315
 C         0.172207        -0.529531        -0.193533
 C         1.091035         0.574861        -0.674511
 C         0.324879         1.404693        -1.651599
 C         1.261399         2.162450        -2.644440
 O         2.231959         3.146088        -2.193685
 C         2.667062         1.848762        -2.825975
 C         3.413599         0.975024        -1.823197
 C         2.538087         0.470672        -0.693163
 O         1.919422         1.294486         0.414349
 H        -0.859202         0.003759         0.001994
 H         0.068637        -1.383462        -1.038676
 H         0.479213        -1.036529         0.704075
 H        -0.532924         0.808786        -2.179874
 H        -0.043015         2.183437        -0.991650
 H         0.697675         2.547917        -3.427065
 H         3.136054         1.929629        -3.803452
 H         3.832983         0.108354        -2.286128
 H         4.274668         1.565765        -1.502085
 H         2.950168        -0.508294        -0.309739
