19
Iteration:   685
 C         0.064246        -0.466076        -0.016527
 C         1.117787         0.514381        -0.645512
 C         0.450786         1.526870        -1.579198
 C         1.207228         2.262963        -2.676609
 O         2.165254         3.334465        -2.302983
 C         2.638946         2.017400        -2.724028
 C         3.357684         0.984982        -1.808952
 C         2.527006         0.217022        -0.843366
 O         2.087322         0.933845         0.328176
 H        -0.425054         0.145301         0.725714
 H        -0.652084        -0.816262        -0.773627
 H         0.405622        -1.278906         0.485165
 H        -0.572405         1.078726        -2.046654
 H         0.038018         2.296029        -0.910160
 H         0.761376         2.448241        -3.688173
 H         3.140972         2.137859        -3.738572
 H         3.924437         0.347106        -2.461654
 H         4.083203         1.574166        -1.191522
 H         2.940112        -0.773207        -0.659240
