19
Iteration:  3207
 C         0.209014        -0.621873        -0.360325
 C         1.070539         0.532465        -0.673273
 C         0.616260         1.657150        -1.527718
 C         1.310990         1.859634        -2.844316
 O         2.177304         3.145139        -2.875316
 C         2.740971         1.768257        -2.742944
 C         3.266614         1.485852        -1.319351
 C         2.525754         0.454535        -0.485393
 O         1.714147         0.973405         0.584649
 H         0.321853        -1.483676        -1.080731
 H         0.516627        -0.936384         0.654087
 H        -0.870001        -0.290254        -0.246263
 H        -0.409397         1.835530        -1.691141
 H         0.895787         2.630899        -0.945451
 H         0.758225         1.742373        -3.792462
 H         3.219332         1.620529        -3.654995
 H         4.372770         1.497264        -1.325815
 H         3.135513         2.435608        -0.872539
 H         2.949855        -0.450712        -0.351514
