19
Iteration:   532
 C         0.195945        -0.476450         0.014368
 C         1.014904         0.520974        -0.739240
 C         0.291242         1.454234        -1.611831
 C         1.239561         2.309192        -2.494008
 O         2.260329         3.148450        -1.978878
 C         2.708835         1.994981        -2.709425
 C         3.385474         0.818238        -1.990201
 C         2.538272         0.313123        -0.883838
 O         1.977187         1.250504         0.088930
 H        -0.872172        -0.157848        -0.041468
 H         0.247857        -1.570502        -0.331867
 H         0.545581        -0.441499         1.124614
 H        -0.466564         1.044877        -2.212687
 H        -0.190015         2.134795        -0.882351
 H         0.667544         2.732144        -3.340627
 H         3.138659         2.288762        -3.740704
 H         3.455357         0.066095        -2.753853
 H         4.400474         1.080178        -1.600397
 H         2.830821        -0.623063        -0.396631
