19
Iteration:  2145charge 0 multiplicity 1
 C         0.294589        -0.609187        -0.152172
 C         1.063609         0.501562        -0.751448
 C         0.334271         1.428864        -1.784244
 C         1.308832         2.033956        -2.803558
 O         2.194948         2.991497        -2.270987
 C         2.769941         1.817658        -2.703241
 C         3.481045         1.137308        -1.583050
 C         2.539026         0.557881        -0.514375
 O         1.619463         1.466603         0.274703
 H         0.297342        -1.480697        -0.738379
 H         0.913181        -0.936912         0.812915
 H        -0.718532        -0.363641        -0.159500
 H        -0.226229         0.850478        -2.429473
 H        -0.358409         2.100686        -1.236764
 H         0.926606         2.356010        -3.706392
 H         3.327533         1.994200        -3.600351
 H         4.010149         0.241517        -1.941653
 H         4.245005         1.823139        -1.145789
 H         3.087033        -0.180246         0.202517
