19
Iteration:   861
 C         0.183460        -0.314584         0.185249
 C         1.030471         0.567173        -0.713095
 C         0.360936         1.382337        -1.828860
 C         1.297713         2.224154        -2.696424
 O         1.994771         3.208039        -1.846580
 C         2.739926         2.186275        -2.632265
 C         3.365292         0.764723        -2.019384
 C         2.506301         0.164918        -0.903478
 O         2.109405         1.136688         0.130096
 H        -0.143966         0.242784         1.041017
 H        -0.778036        -0.551391        -0.243856
 H         0.868536        -1.254638         0.405354
 H        -0.190278         0.756557        -2.373273
 H        -0.203283         2.178063        -1.431764
 H         0.742190         2.507840        -3.662448
 H         3.441671         2.673615        -3.279436
 H         3.495526         0.116918        -2.910377
 H         4.411589         1.035600        -1.650040
 H         2.920985        -0.775634        -0.511926
