19
Iteration:  3611charge 0 multiplicity 1
 C         0.233896        -0.517585         0.095262
 C         0.981168         0.518059        -0.671521
 C         0.514276         1.037590        -2.065306
 C         1.483979         2.074037        -2.785634
 O         2.113695         3.168820        -2.025498
 C         2.922049         2.069869        -2.691625
 C         3.315805         0.942760        -1.775853
 C         2.408777         0.607593        -0.564150
 O         1.678210         1.524298         0.230946
 H        -0.018234        -1.269888        -0.610134
 H         0.865728        -0.967019         0.931522
 H        -0.729701        -0.207673         0.469796
 H         0.337975         0.092642        -2.696509
 H        -0.430430         1.373263        -2.029626
 H         0.974600         2.284711        -3.783308
 H         3.469752         2.184832        -3.649066
 H         3.330814        -0.009335        -2.360937
 H         4.327389         1.082484        -1.451024
 H         2.915158        -0.272764         0.021121
