19
Iteration:  1648charge 0 multiplicity 1
 C         0.251536        -0.602668        -0.164522
 C         1.078184         0.583688        -0.680274
 C         0.359006         1.327952        -1.866640
 C         1.321146         2.144538        -2.741408
 O         2.129832         3.172766        -2.301541
 C         2.712085         1.749649        -2.745010
 C         3.435270         1.080508        -1.660469
 C         2.581714         0.537289        -0.492155
 O         1.755172         1.387783         0.406376
 H        -0.139000        -0.404218         0.918867
 H        -0.596223        -0.757343        -0.846997
 H         0.929045        -1.661632        -0.116546
 H        -0.072562         0.539877        -2.599760
 H        -0.430453         1.932031        -1.416215
 H         0.874993         2.405870        -3.693066
 H         3.249583         1.753194        -3.627130
 H         3.834060         0.170014        -2.116580
 H         4.320735         1.688538        -1.435208
 H         3.037033        -0.326901         0.080436
