19
Iteration:   400charge 0 multiplicity 1
 C         0.281260        -0.606791        -0.177727
 C         1.104799         0.620851        -0.690811
 C         0.298264         1.597268        -1.581424
 C         1.162333         2.347159        -2.589023
 O         2.356754         3.113023        -2.183383
 C         2.559807         1.854996        -2.787766
 C         3.300734         0.894656        -1.905292
 C         2.518570         0.428029        -0.732101
 O         1.987499         1.144511         0.387699
 H         0.589549        -0.749397         0.864783
 H        -0.872078        -0.498571        -0.191220
 H         0.440022        -1.470076        -0.761322
 H        -0.388974         1.093941        -2.169952
 H        -0.337174         2.261386        -0.976751
 H         0.534948         2.821254        -3.450605
 H         3.002424         1.961770        -3.885346
 H         3.804569         0.089452        -2.436597
 H         4.233814         1.506859        -1.628984
 H         2.825303        -0.623428        -0.440834
