19
Iteration:  2784
 C         0.348956        -0.684099        -0.257204
 C         1.093288         0.638456        -0.587655
 C         0.446977         1.521452        -1.696164
 C         1.293284         1.978571        -2.860303
 O         2.100427         3.186628        -2.640850
 C         2.751610         1.861726        -2.655946
 C         3.478628         1.075102        -1.469411
 C         2.477694         0.521680        -0.543907
 O         1.646145         1.253716         0.493732
 H         0.428823        -1.493353        -1.047279
 H         0.762663        -1.211907         0.587013
 H        -0.639768        -0.351529         0.031294
 H        -0.477678         1.185438        -2.198831
 H         0.043818         2.444156        -1.147145
 H         0.863116         1.999528        -3.778475
 H         3.313999         1.791232        -3.504735
 H         4.059685         0.338534        -1.975496
 H         4.147709         1.844619        -1.022836
 H         2.896967        -0.394725        -0.131533
