19
Iteration:  4578charge 0 multiplicity 1
 C         0.164048        -0.742318        -0.316579
 C         1.054980         0.573293        -0.658851
 C         0.500746         1.717794        -1.607447
 C         1.307136         1.934484        -2.842017
 O         2.108799         3.119395        -2.860293
 C         2.781208         1.899274        -2.681743
 C         3.422036         1.381727        -1.345739
 C         2.498851         0.482789        -0.491145
 O         1.808747         1.049538         0.591731
 H         0.317889        -1.604505        -1.040849
 H         0.202124        -1.302929         0.623936
 H        -0.939488        -0.422612        -0.482609
 H        -0.667908         1.596996        -1.871426
 H         0.487730         2.536175        -0.985252
 H         0.817977         1.502808        -3.760800
 H         3.346843         1.733551        -3.673188
 H         4.155133         0.670464        -1.560197
 H         3.857512         2.206424        -0.823498
 H         3.031231        -0.437960        -0.200574
