19
Iteration:  4892
 C         0.128543        -0.310933         0.105590
 C         1.036689         0.554093        -0.783389
 C         0.490800         1.036734        -2.060054
 C         1.407113         1.980354        -2.753583
 O         1.883737         3.081531        -2.014157
 C         2.880157         2.127901        -2.436208
 C         3.500060         0.966284        -1.680598
 C         2.547250         0.453939        -0.708233
 O         1.801063         1.444662         0.054958
 H        -0.196847        -1.299264        -0.430733
 H         0.706385        -0.707324         0.953539
 H        -0.713740         0.389115         0.268405
 H         0.054560         0.123133        -2.669207
 H        -0.476995         1.746588        -1.834573
 H         1.179526         2.253441        -3.734790
 H         3.524713         2.564605        -3.133006
 H         3.638967         0.120102        -2.419912
 H         4.459598         1.177138        -1.195291
 H         3.010013        -0.332827        -0.045388
