19
Iteration:  2331
 C         0.246025        -0.538809        -0.150698
 C         1.069303         0.619281        -0.666599
 C         0.394667         1.157957        -1.895507
 C         1.320275         1.993073        -2.747038
 O         2.169951         3.027080        -2.032799
 C         2.767585         1.858379        -2.673881
 C         3.461665         0.968497        -1.709275
 C         2.529895         0.567392        -0.514571
 O         1.676762         1.651754         0.150734
 H         0.413459        -1.325215        -0.821997
 H         0.439212        -0.898068         0.932439
 H        -0.740297        -0.216176        -0.352112
 H         0.030640         0.374499        -2.509082
 H        -0.599116         1.749194        -1.690318
 H         0.940765         2.366112        -3.643159
 H         3.403125         2.230736        -3.469936
 H         3.892229         0.146295        -2.299555
 H         4.326320         1.601180        -1.351465
 H         2.907238        -0.240857         0.229554
