19
Iteration:  1075charge 0 multiplicity 1
 C         0.170800        -0.602954        -0.117479
 C         1.043110         0.498683        -0.663001
 C         0.350924         1.698024        -1.491723
 C         1.206342         2.187850        -2.710367
 O         2.129856         3.249827        -2.315503
 C         2.738800         2.025444        -2.729585
 C         3.409471         0.946186        -1.864653
 C         2.520160         0.289148        -0.725360
 O         2.012267         1.078170         0.336772
 H         0.289691        -0.582168         1.066331
 H        -0.943338        -0.308721        -0.339941
 H         0.362743        -1.573593        -0.447481
 H        -0.529746         1.309604        -1.833920
 H         0.255033         2.547396        -0.892182
 H         0.707842         2.239469        -3.657054
 H         3.395951         2.271803        -3.716804
 H         3.684664         0.050665        -2.523117
 H         4.383377         1.229239        -1.368822
 H         2.886539        -0.791420        -0.388389
