19
Iteration:  3033charge 0 multiplicity 1
 C         0.147239        -0.559666        -0.215431
 C         1.070303         0.557505        -0.637826
 C         0.372253         1.391688        -1.715352
 C         1.334261         1.909589        -2.826964
 O         2.107171         3.102953        -2.414574
 C         2.832308         1.896768        -2.689914
 C         3.523633         1.292595        -1.530053
 C         2.579081         0.518427        -0.600893
 O         1.727997         1.256344         0.376609
 H        -0.072542        -1.409534        -0.930886
 H         0.313558        -0.928527         0.777128
 H        -0.768179        -0.007068        -0.134690
 H        -0.281706         0.676843        -2.168486
 H        -0.256096         2.163545        -1.167028
 H         0.981548         1.773822        -3.909071
 H         3.307424         1.795082        -3.685143
 H         4.330597         0.547568        -1.800430
 H         3.863425         2.101373        -0.948351
 H         2.948670        -0.394936        -0.215798
