19
Iteration:  3490charge 0 multiplicity 1
 C         0.211448        -0.612690        -0.231913
 C         1.064731         0.549590        -0.643749
 C         0.381295         1.470557        -1.702140
 C         1.350189         1.972568        -2.814159
 O         2.154751         3.198590        -2.630699
 C         2.785114         1.911935        -2.670909
 C         3.438475         1.224326        -1.478782
 C         2.553807         0.459585        -0.512967
 O         1.711439         1.210369         0.442070
 H         0.053370        -1.327272        -0.984489
 H         0.743071        -1.102725         0.592639
 H        -0.739763        -0.360910         0.195513
 H        -0.496180         0.949467        -2.122838
 H        -0.202882         2.288353        -1.138454
 H         0.981541         1.997995        -3.868672
 H         3.267121         1.636226        -3.629265
 H         4.218805         0.557308        -1.924809
 H         3.982053         1.832494        -0.772158
 H         2.949156        -0.571265        -0.066872
