19
Iteration:  4678charge 0 multiplicity 1
 C         0.129292        -0.691942        -0.215918
 C         1.006738         0.488787        -0.635555
 C         0.535704         1.632853        -1.573029
 C         1.397263         1.861252        -2.852661
 O         2.106639         3.169282        -2.832396
 C         2.854138         1.976414        -2.731881
 C         3.440181         1.373634        -1.366364
 C         2.505229         0.510305        -0.519543
 O         1.685774         1.059675         0.531434
 H        -0.582019        -0.908667        -0.973503
 H         0.695539        -1.571458        -0.260335
 H        -0.539025        -0.482153         0.663602
 H        -0.474621         1.344675        -2.049868
 H         0.634820         2.535294        -1.040492
 H         0.883612         1.566721        -3.760178
 H         3.355198         1.826758        -3.759559
 H         4.196287         0.703061        -1.641785
 H         3.813712         2.125497        -0.679577
 H         2.949058        -0.473295        -0.337230
