19
Iteration:   553
 C         0.332573        -0.586423         0.024873
 C         1.042399         0.591722        -0.721262
 C         0.314884         1.572951        -1.740976
 C         1.259463         2.335492        -2.641711
 O         2.301736         3.085863        -1.876794
 C         2.643711         1.970985        -2.729712
 C         3.183902         0.769530        -2.013150
 C         2.515039         0.325684        -0.801928
 O         1.969177         1.307499         0.188600
 H        -0.787683        -0.555625         0.137132
 H         0.601380        -1.576442        -0.497339
 H         0.806369        -0.626060         1.030152
 H        -0.246718         1.012835        -2.442042
 H        -0.247474         2.276750        -1.171762
 H         0.754958         2.890384        -3.451700
 H         3.176311         2.335688        -3.655378
 H         3.119686        -0.023673        -2.705828
 H         4.235419         0.972931        -1.734747
 H         2.795415        -0.608036        -0.388308
