19
Iteration:  2431
 C         0.151907        -0.471987        -0.093947
 C         1.058428         0.613621        -0.712100
 C         0.442687         1.284603        -1.824583
 C         1.305167         1.980724        -2.852025
 O         2.091566         3.094382        -2.394718
 C         2.807491         1.844253        -2.667618
 C         3.514073         1.263292        -1.450085
 C         2.593941         0.443041        -0.579249
 O         1.700767         1.289061         0.335602
 H        -0.509068        -0.785335        -0.905300
 H         0.717116        -1.415798         0.152837
 H        -0.250767        -0.045935         0.817817
 H        -0.142573         0.595355        -2.352792
 H        -0.409800         1.963308        -1.417499
 H         0.789558         2.186728        -3.791417
 H         3.384435         1.850338        -3.601032
 H         4.259756         0.581857        -1.929989
 H         4.031202         2.175891        -1.038453
 H         3.002624        -0.583358        -0.220041
