19
Iteration:  3771charge 0 multiplicity 1
 C         0.306862        -0.572399        -0.306987
 C         1.047766         0.649922        -0.638010
 C         0.331951         1.568833        -1.663310
 C         1.298472         1.899382        -2.822303
 O         2.132567         3.017009        -2.455532
 C         2.788233         1.760132        -2.786035
 C         3.525445         1.285301        -1.490392
 C         2.491006         0.516885        -0.576455
 O         1.678560         1.219644         0.452008
 H         0.117282        -1.032487        -1.232665
 H         0.995361        -1.262781         0.301814
 H        -0.707386        -0.410408         0.154289
 H        -0.636457         1.369133        -1.983688
 H         0.175272         2.514109        -1.155402
 H         0.919917         1.699949        -3.804165
 H         3.542880         1.696350        -3.600052
 H         4.471970         0.721639        -1.554313
 H         3.807942         2.250573        -0.930457
 H         2.887834        -0.486465        -0.125734
