19
Iteration:  4513
 C         0.149961        -0.731999        -0.188745
 C         0.982074         0.532016        -0.628357
 C         0.450092         1.588946        -1.619181
 C         1.318980         2.032403        -2.798210
 O         2.212233         3.168932        -2.779188
 C         2.797471         1.854795        -2.763075
 C         3.430699         1.383241        -1.396758
 C         2.504468         0.479581        -0.567310
 O         1.742691         1.062769         0.534968
 H         0.728190        -1.562926        -0.661326
 H         0.129034        -0.807512         0.876751
 H        -0.862650        -0.576298        -0.815538
 H        -0.541955         1.154985        -2.012225
 H         0.337547         2.481484        -1.079912
 H         0.952013         1.879102        -3.833703
 H         3.373253         1.517985        -3.717265
 H         4.332787         0.888028        -1.667994
 H         3.738001         2.258127        -0.785493
 H         2.964658        -0.463271        -0.248290
