19
Iteration:  2838
 C         0.240831        -0.681587        -0.286870
 C         1.060258         0.493230        -0.651011
 C         0.386315         1.387965        -1.660568
 C         1.285332         2.054059        -2.750652
 O         2.177265         3.077536        -2.424649
 C         2.730089         1.809342        -2.758840
 C         3.520876         1.189463        -1.533597
 C         2.571659         0.520763        -0.465553
 O         1.690490         1.458854         0.295492
 H        -0.134704        -1.159122        -1.275079
 H         0.743532        -1.328941         0.387358
 H        -0.689193        -0.409220         0.226593
 H        -0.462693         0.851943        -2.321115
 H        -0.180103         2.075548        -0.923446
 H         0.850040         2.099095        -3.692313
 H         3.231906         1.783468        -3.693152
 H         4.248132         0.515656        -1.935103
 H         4.040025         2.118439        -1.055658
 H         2.961764        -0.255321         0.243717
