19
Iteration:  3941charge 0 multiplicity 1
 C         0.160135        -0.449650         0.062442
 C         1.015540         0.533851        -0.733514
 C         0.483415         0.995840        -2.114925
 C         1.375008         2.118316        -2.763469
 O         2.164027         3.065039        -2.004969
 C         2.768015         2.000574        -2.660951
 C         3.375356         1.001294        -1.678142
 C         2.516893         0.549588        -0.530409
 O         1.766849         1.516732         0.117059
 H        -0.033773        -1.460222        -0.557913
 H         0.603753        -0.857994         0.995097
 H        -0.676041         0.136125         0.467777
 H         0.455947         0.171694        -2.713656
 H        -0.661946         1.268693        -2.008912
 H         0.777271         2.711065        -3.516893
 H         3.286040         2.293371        -3.561732
 H         3.909979         0.121063        -2.158595
 H         4.185470         1.599552        -1.222466
 H         2.963578        -0.133045         0.126080
