19
Iteration:  4949charge 0 multiplicity 1
 C         0.113739        -0.487292        -0.032612
 C         1.027368         0.511219        -0.668429
 C         0.429556         1.116597        -1.966290
 C         1.383208         2.003321        -2.661969
 O         2.163062         3.117145        -2.135936
 C         2.795629         2.045900        -2.718484
 C         3.509679         1.076596        -1.695412
 C         2.525347         0.557796        -0.584425
 O         1.723002         1.421119         0.216209
 H        -0.157664        -1.426533        -0.617497
 H         0.262625        -0.768984         0.996963
 H        -0.898060        -0.116153         0.125443
 H         0.367344         0.174782        -2.574965
 H        -0.639625         1.649325        -1.833712
 H         0.985487         2.270566        -3.672025
 H         3.253107         2.334256        -3.683555
 H         3.961627         0.180704        -2.258137
 H         4.419277         1.590403        -1.309492
 H         2.893065        -0.233108         0.092297
