19
Iteration:  3558
 C         0.073320        -0.425870        -0.021762
 C         1.088789         0.461583        -0.783333
 C         0.435278         1.142316        -1.967272
 C         1.342015         2.025737        -2.778806
 O         2.049158         3.045215        -2.066526
 C         2.807371         1.972812        -2.601599
 C         3.511241         1.091229        -1.589062
 C         2.567520         0.479918        -0.592226
 O         1.811033         1.497605         0.079749
 H        -0.302669        -1.276759        -0.562217
 H         0.576654        -0.805066         0.883632
 H        -0.738589         0.142962         0.287770
 H        -0.123604         0.370617        -2.447674
 H        -0.527767         1.724120        -1.495659
 H         0.771171         2.342994        -3.696822
 H         3.400649         2.157186        -3.526123
 H         4.106143         0.252320        -2.025607
 H         4.211203         1.860709        -1.204859
 H         2.996029        -0.275617         0.193932
