19
Iteration:  2875
 C         0.181951        -0.505991        -0.004581
 C         1.023285         0.562901        -0.714871
 C         0.428471         1.241555        -1.929605
 C         1.322162         1.999746        -2.884871
 O         2.007272         3.119574        -2.302055
 C         2.878731         2.028426        -2.625006
 C         3.489747         1.162896        -1.585036
 C         2.452766         0.444200        -0.610206
 O         1.825275         1.285892         0.350029
 H         0.066668        -1.422049        -0.479658
 H         0.710217        -0.823155         0.984731
 H        -0.729907         0.032816         0.236474
 H        -0.201251         0.576482        -2.448843
 H        -0.275801         2.037046        -1.475851
 H         1.077867         2.032351        -3.956015
 H         3.473570         2.263057        -3.510103
 H         4.289775         0.537472        -2.102193
 H         4.126075         1.736209        -0.978385
 H         2.847788        -0.512996        -0.175699
