19
Iteration:  4477charge 0 multiplicity 1
 C         0.281684        -0.690708        -0.319531
 C         1.018754         0.526190        -0.627293
 C         0.419471         1.592029        -1.645263
 C         1.307737         2.005818        -2.832845
 O         2.142773         3.142182        -2.643076
 C         2.775628         1.818468        -2.672280
 C         3.481280         1.258864        -1.433825
 C         2.480886         0.516333        -0.487810
 O         1.731507         1.224987         0.441912
 H         0.635446        -1.635185        -0.891984
 H         0.228523        -0.963045         0.824104
 H        -0.734235        -0.655665        -0.583141
 H        -0.640166         1.330523        -2.016627
 H         0.280179         2.521872        -1.126592
 H         0.867763         1.931313        -3.869676
 H         3.154907         1.495877        -3.621745
 H         4.126680         0.478277        -1.797712
 H         4.071632         1.880337        -0.814597
 H         2.870954        -0.430458        -0.048749
