19
Iteration:  2843
 C         0.242872        -0.638079        -0.279511
 C         1.027939         0.512082        -0.670963
 C         0.369141         1.382673        -1.671229
 C         1.285709         2.044414        -2.726281
 O         2.151220         3.069130        -2.415896
 C         2.743164         1.839601        -2.714230
 C         3.497495         1.174247        -1.528809
 C         2.614487         0.514444        -0.464286
 O         1.713916         1.419759         0.240491
 H        -0.136732        -1.111350        -1.129705
 H         0.768977        -1.297739         0.506476
 H        -0.718569        -0.313233         0.172779
 H        -0.253883         0.829974        -2.250982
 H        -0.199327         2.013735        -1.012064
 H         0.816933         2.042150        -3.799554
 H         3.318387         1.836356        -3.700256
 H         4.364617         0.554570        -1.928591
 H         3.916316         2.013429        -1.076626
 H         2.946983        -0.191382         0.297423
