19
Iteration:  1539
 C         0.039883        -0.455517         0.011866
 C         1.069924         0.512668        -0.651062
 C         0.418808         1.224781        -1.865298
 C         1.291032         2.108644        -2.678087
 O         2.066423         3.091677        -2.155796
 C         2.815717         1.966457        -2.739986
 C         3.495369         1.104969        -1.738450
 C         2.548680         0.449949        -0.700233
 O         1.908853         1.331059         0.277893
 H        -0.722452        -0.469072        -0.766504
 H         0.300628        -1.372544         0.262949
 H        -0.337935        -0.002563         1.008625
 H         0.093982         0.436423        -2.619033
 H        -0.508123         1.621081        -1.616848
 H         0.879941         2.332458        -3.703995
 H         3.361122         2.405055        -3.627387
 H         3.916276         0.282048        -2.299786
 H         4.313262         1.711605        -1.373951
 H         2.986921        -0.501841        -0.261915
