19
Iteration:   586charge 0 multiplicity 1
 C         0.219131        -0.540896        -0.079320
 C         1.068236         0.601167        -0.643670
 C         0.324069         1.437492        -1.669909
 C         1.259790         2.269596        -2.494744
 O         2.345367         3.117634        -1.946638
 C         2.670745         2.017948        -2.796288
 C         3.197395         0.789368        -2.047233
 C         2.518477         0.437028        -0.757716
 O         1.984867         1.309745         0.218584
 H        -0.771052        -0.273368         0.324219
 H         0.046473        -1.330718        -0.878122
 H         0.793807        -1.045095         0.717991
 H        -0.060533         0.775303        -2.388885
 H        -0.624277         1.804718        -1.446552
 H         0.723350         2.736278        -3.351822
 H         3.194739         2.198152        -3.797671
 H         3.107756        -0.036515        -2.683685
 H         4.298783         0.828066        -1.933210
 H         2.963678        -0.476504        -0.417862
