19
Iteration:   630charge 0 multiplicity 1
 C         0.119518        -0.417907         0.041709
 C         1.045943         0.527074        -0.728776
 C         0.369189         1.506593        -1.635517
 C         1.266146         2.237719        -2.623391
 O         2.176398         3.151839        -2.055637
 C         2.663529         2.002177        -2.738256
 C         3.402326         0.987394        -1.864208
 C         2.534655         0.228262        -0.849759
 O         2.045113         1.088193         0.145795
 H        -0.303407         0.215885         0.792244
 H        -0.780489        -0.798617        -0.463055
 H         0.654656        -1.161401         0.499922
 H        -0.426895         0.973339        -2.205256
 H        -0.256834         2.190760        -1.106921
 H         0.691505         2.651879        -3.470958
 H         3.084610         2.292744        -3.740598
 H         3.897040         0.318500        -2.529686
 H         4.234648         1.503508        -1.336987
 H         2.894159        -0.742739        -0.489266
