19
Iteration:   369
 C         0.181717        -0.563419        -0.127596
 C         1.038554         0.627863        -0.581467
 C         0.402636         1.501731        -1.625683
 C         1.206844         2.264172        -2.564864
 O         2.197059         3.161032        -2.174655
 C         2.728293         1.993673        -2.772990
 C         3.274834         0.864983        -1.936519
 C         2.517952         0.348166        -0.757966
 O         2.064522         1.220320         0.313289
 H         0.784306        -1.199459         0.341536
 H        -0.707306        -0.393056         0.485618
 H        -0.219180        -0.968803        -1.072431
 H        -0.205183         0.827835        -2.276789
 H        -0.366542         2.081659        -1.050954
 H         0.694315         2.666784        -3.446448
 H         3.297829         2.170375        -3.713915
 H         3.369999        -0.010149        -2.617480
 H         4.258763         1.054033        -1.502485
 H         2.747401        -0.621735        -0.337464
