19
Iteration:  2730
 C         0.088164        -0.457140        -0.114888
 C         1.080553         0.548822        -0.674699
 C         0.442385         1.361570        -1.805278
 C         1.337768         1.946546        -2.802527
 O         2.071033         3.146768        -2.473937
 C         2.812778         1.851044        -2.732721
 C         3.451678         1.377431        -1.486129
 C         2.602061         0.448071        -0.589696
 O         1.775531         1.131588         0.415332
 H         0.023445        -1.351486        -0.828420
 H         0.515399        -0.823220         0.848929
 H        -0.931750        -0.057988        -0.005276
 H        -0.095926         0.637067        -2.313616
 H        -0.234171         2.100813        -1.278904
 H         0.940683         1.975004        -3.815419
 H         3.282785         1.796948        -3.647750
 H         4.344688         0.787044        -1.820870
 H         3.846998         2.225792        -0.904881
 H         3.014277        -0.514428        -0.214000
