19
Iteration:  1809
 C         0.232053        -0.576701        -0.054354
 C         1.080811         0.582745        -0.677202
 C         0.358199         1.204961        -1.973020
 C         1.322807         1.959960        -2.870869
 O         2.110766         3.095255        -2.177654
 C         2.788827         1.948874        -2.624022
 C         3.439221         1.009844        -1.639189
 C         2.563919         0.561751        -0.484888
 O         1.721473         1.549625         0.231038
 H        -0.077568        -1.180056        -0.872263
 H         0.918709        -1.137178         0.670445
 H        -0.600613        -0.326966         0.550575
 H         0.027619         0.413419        -2.563008
 H        -0.533436         1.749463        -1.655957
 H         0.898297         2.296209        -3.909297
 H         3.591444         2.198004        -3.477574
 H         3.935286         0.135700        -2.085695
 H         4.210931         1.645654        -1.172671
 H         2.915280        -0.250036         0.159016
