19
Iteration:  1432charge 0 multiplicity 1
 C         0.075193        -0.429698        -0.127619
 C         1.172506         0.508921        -0.685373
 C         0.401918         1.291453        -1.843807
 C         1.249365         2.163306        -2.679455
 O         2.151708         3.127417        -2.178982
 C         2.643279         1.914553        -2.703116
 C         3.482636         1.001549        -1.817436
 C         2.649906         0.455631        -0.541914
 O         1.833392         1.342071         0.331034
 H         0.501276        -1.456683         0.114712
 H        -0.352339        -0.195844         0.846835
 H        -0.654522        -0.538574        -0.907978
 H        -0.000309         0.517118        -2.447199
 H        -0.362274         1.888793        -1.214127
 H         0.768737         2.458029        -3.690624
 H         2.942945         1.816688        -3.789903
 H         3.778775         0.072748        -2.428760
 H         4.438626         1.512922        -1.524052
 H         3.121696        -0.300338         0.014237
