19
Iteration:  2206charge 0 multiplicity 1
 C         0.156244        -0.536163        -0.083867
 C         1.048834         0.487662        -0.678805
 C         0.421332         1.344795        -1.846200
 C         1.375975         1.997086        -2.844580
 O         2.069303         3.228236        -2.447697
 C         2.801705         1.894063        -2.676774
 C         3.509424         1.148513        -1.514899
 C         2.524804         0.503137        -0.524255
 O         1.763044         1.263617         0.408137
 H         0.052874        -1.300500        -0.960545
 H         0.403222        -0.973446         0.826915
 H        -0.875586        -0.041476         0.099890
 H        -0.266635         0.681999        -2.495474
 H        -0.213829         2.142772        -1.413849
 H         0.972584         2.039829        -3.905370
 H         3.401658         1.929271        -3.638387
 H         3.992677         0.303124        -2.035068
 H         4.289981         1.817221        -1.125717
 H         2.901909        -0.385052        -0.070538
