19
Iteration:  2528charge 0 multiplicity 1
 C         0.152858        -0.604889        -0.096861
 C         1.030962         0.568433        -0.643254
 C         0.417570         1.300207        -1.820681
 C         1.361916         2.055292        -2.783197
 O         2.173088         3.130354        -2.337853
 C         2.784407         1.868148        -2.785141
 C         3.402832         1.129828        -1.599095
 C         2.518244         0.488036        -0.554525
 O         1.771641         1.378237         0.327508
 H         0.533929        -1.494547        -0.647408
 H         0.498486        -0.739247         1.061549
 H        -0.925080        -0.370677        -0.011558
 H        -0.103863         0.520260        -2.393269
 H        -0.435065         1.916473        -1.453717
 H         0.897439         2.283801        -3.709582
 H         3.476266         2.027030        -3.642275
 H         4.246671         0.485575        -1.863161
 H         3.772302         2.099979        -1.096230
 H         2.934006        -0.375008        -0.075239
