19
Iteration:  4507
 C         0.233319        -0.691086        -0.236211
 C         1.032682         0.502684        -0.608201
 C         0.450577         1.608406        -1.580189
 C         1.338155         2.016238        -2.816632
 O         2.209343         3.178433        -2.789717
 C         2.813713         1.888821        -2.767195
 C         3.413812         1.373724        -1.439972
 C         2.473693         0.438391        -0.527283
 O         1.677340         1.059030         0.513818
 H         0.665995        -1.668801        -0.477271
 H         0.198946        -0.702058         0.884173
 H        -0.744278        -0.550771        -0.582302
 H        -0.444773         1.260242        -2.026386
 H         0.046367         2.615269        -1.107042
 H         0.871808         1.941449        -3.790233
 H         3.271328         1.474229        -3.625946
 H         4.319605         0.723745        -1.708844
 H         3.711673         2.120805        -0.671893
 H         2.881188        -0.514358        -0.169017
