19
Iteration:  3670
 C         0.127370        -0.498018        -0.107479
 C         1.058720         0.587579        -0.714443
 C         0.377185         1.366005        -1.787423
 C         1.322722         1.952278        -2.833303
 O         2.055866         3.007451        -2.255271
 C         2.844258         1.922965        -2.649114
 C         3.549948         1.207694        -1.513153
 C         2.526391         0.420263        -0.637474
 O         1.784223         1.375401         0.227737
 H         0.165262        -1.370419        -0.791512
 H         0.454894        -0.854153         0.812293
 H        -0.897796        -0.174169        -0.013961
 H        -0.117517         0.624217        -2.365146
 H        -0.276442         2.107616        -1.421963
 H         1.025584         2.203744        -3.873872
 H         3.386790         1.938361        -3.595450
 H         4.367746         0.549779        -1.854960
 H         4.003089         2.038044        -0.896836
 H         2.802385        -0.545093        -0.037648
