19
Iteration:  2969
 C         0.289554        -0.529742         0.042727
 C         0.983174         0.582458        -0.724371
 C         0.385344         1.092967        -2.011198
 C         1.403335         2.049915        -2.751215
 O         2.088046         3.006145        -2.018567
 C         2.908989         1.993039        -2.764669
 C         3.455801         1.041178        -1.667469
 C         2.448313         0.643417        -0.588434
 O         1.671956         1.507522         0.196135
 H        -0.127800        -1.316483        -0.667634
 H         0.899916        -1.142315         0.736794
 H        -0.488087        -0.018713         0.528399
 H         0.074443         0.254300        -2.636359
 H        -0.436805         1.653261        -1.862257
 H         1.121591         2.470871        -3.694481
 H         3.388720         2.404112        -3.614575
 H         3.600191         0.106890        -2.114315
 H         4.503875         1.268394        -1.329257
 H         2.839908        -0.219654         0.007198
