19
Iteration:  1720
 C         0.263730        -0.351529         0.017986
 C         1.113453         0.551566        -0.812177
 C         0.346167         1.180606        -1.965442
 C         1.337577         1.977639        -2.771379
 O         2.015986         3.031965        -2.083472
 C         2.805003         1.945071        -2.621586
 C         3.467522         1.119073        -1.538678
 C         2.552530         0.418762        -0.657859
 O         1.733679         1.408910         0.110594
 H         0.929610        -0.953778         0.572626
 H        -0.326665         0.286892         0.832426
 H        -0.406229        -0.904068        -0.558747
 H        -0.262190         0.525392        -2.489296
 H        -0.262433         1.932374        -1.407622
 H         1.021902         2.197830        -3.882853
 H         3.456409         2.184779        -3.625431
 H         4.168622         0.384060        -2.005386
 H         4.138746         1.779471        -0.944141
 H         2.945550        -0.434972        -0.126217
