19
Iteration:   949charge 0 multiplicity 1
 C         0.322896        -0.565952        -0.088706
 C         1.021097         0.548386        -0.665706
 C         0.343701         1.598917        -1.542006
 C         1.207286         2.296272        -2.584168
 O         2.295702         3.193764        -2.109567
 C         2.677436         1.971352        -2.792927
 C         3.291019         0.880208        -1.967714
 C         2.451838         0.246645        -0.776644
 O         1.942303         1.173655         0.212385
 H        -0.735186        -0.478071        -0.003483
 H         0.542692        -1.422752        -0.684845
 H         0.793269        -0.838859         0.994149
 H        -0.677986         1.368809        -1.950571
 H         0.106854         2.343897        -0.747858
 H         0.636597         2.849555        -3.406373
 H         3.207497         2.167714        -3.653657
 H         3.429855         0.037262        -2.674228
 H         4.312039         1.180477        -1.578315
 H         2.836726        -0.648455        -0.311939
