19
Iteration:  2890charge 0 multiplicity 1
 C         0.150831        -0.422903         0.117885
 C         1.006891         0.539669        -0.654767
 C         0.454726         1.246266        -1.968497
 C         1.482601         1.956323        -2.915642
 O         1.941974         3.158308        -2.241700
 C         2.853469         2.112645        -2.691552
 C         3.408175         1.124911        -1.591856
 C         2.565163         0.400244        -0.648126
 O         1.794805         1.235691         0.307078
 H         0.049140        -1.390119        -0.491676
 H         0.622237        -0.553827         1.007773
 H        -0.937186        -0.187385         0.295670
 H         0.201574         0.355480        -2.572821
 H        -0.374006         1.826700        -1.863966
 H         0.887692         2.330181        -3.870244
 H         3.667773         2.484567        -3.434725
 H         3.866760         0.278618        -2.083646
 H         4.206506         1.668249        -0.998489
 H         2.989895        -0.452299        -0.189007
