19
Iteration:  2953charge 0 multiplicity 1
 C         0.190672        -0.446312        -0.015737
 C         1.111601         0.543875        -0.743722
 C         0.452566         1.093655        -2.034781
 C         1.328000         2.028796        -2.808169
 O         2.082930         2.946759        -1.911390
 C         2.778013         1.977094        -2.608045
 C         3.469086         0.985006        -1.736497
 C         2.541522         0.597283        -0.572010
 O         1.692364         1.588284         0.116239
 H        -0.157988        -1.220204        -0.665887
 H         0.822258        -0.851332         0.787238
 H        -0.710055         0.025406         0.509134
 H         0.186603         0.258681        -2.712571
 H        -0.624895         1.536984        -1.776890
 H         0.736590         2.516132        -3.690444
 H         3.536180         2.352795        -3.410039
 H         4.040333         0.093550        -2.248035
 H         4.257462         1.593259        -1.308066
 H         3.083072        -0.065758         0.083461
