19
Iteration:  1953
 C         0.241907        -0.652781        -0.079446
 C         0.987708         0.439777        -0.710903
 C         0.301758         1.383853        -1.788441
 C         1.339652         2.033433        -2.733401
 O         2.211848         3.131498        -2.397136
 C         2.795298         1.806832        -2.666819
 C         3.486927         1.220790        -1.519187
 C         2.527373         0.529869        -0.539123
 O         1.714141         1.415025         0.189435
 H         0.425816        -1.702731        -0.436910
 H         0.482116        -0.690186         0.959574
 H        -0.836782        -0.394329        -0.141743
 H        -0.324093         0.764293        -2.405246
 H        -0.347719         2.075000        -1.216598
 H         1.003772         2.205139        -3.851998
 H         3.324117         1.821766        -3.732380
 H         4.161556         0.397123        -1.854560
 H         4.095846         2.019378        -1.060956
 H         3.066922        -0.228161         0.118005
