19
Iteration:  2639charge 0 multiplicity 1
 C         0.269300        -0.469337        -0.031730
 C         1.076784         0.505451        -0.740305
 C         0.422868         1.168580        -1.911116
 C         1.278617         2.129596        -2.757139
 O         2.118673         2.974034        -2.016468
 C         2.830685         1.868312        -2.740474
 C         3.436115         0.996248        -1.645323
 C         2.531224         0.585096        -0.521745
 O         1.662797         1.559885         0.089971
 H        -0.208381        -1.239330        -0.753064
 H         0.870997        -1.104125         0.622172
 H        -0.507737         0.053108         0.602444
 H         0.466082         0.355820        -2.695993
 H        -0.652137         1.473052        -1.753884
 H         0.950680         2.576943        -3.664903
 H         3.313929         2.284148        -3.646087
 H         3.944359         0.138014        -2.050287
 H         4.162555         1.790481        -1.223289
 H         3.039424        -0.124982         0.176518
