19
Iteration:   730
 C         0.237872        -0.657478        -0.252420
 C         1.068036         0.577385        -0.627780
 C         0.371819         1.695311        -1.435035
 C         1.190042         2.285952        -2.595412
 O         2.329629         3.148956        -2.149020
 C         2.561136         1.823501        -2.830526
 C         3.350866         0.925847        -1.927429
 C         2.478576         0.350133        -0.811395
 O         1.996918         1.186314         0.360492
 H        -0.715417        -0.341670         0.047480
 H         0.138171        -1.316013        -1.099239
 H         0.641109        -1.266764         0.563943
 H        -0.683057         1.385738        -1.937027
 H        -0.004100         2.491849        -0.797889
 H         0.540268         2.777565        -3.375536
 H         2.915438         1.951370        -3.928025
 H         3.840964         0.143670        -2.490171
 H         4.155795         1.584276        -1.518806
 H         2.896037        -0.635909        -0.466255
