19
Iteration:  1574charge 0 multiplicity 1
 C         0.195325        -0.460567        -0.045110
 C         1.120845         0.519652        -0.625489
 C         0.413239         1.272054        -1.848483
 C         1.287611         2.132027        -2.823692
 O         2.088025         3.209914        -2.371130
 C         2.710898         2.005831        -2.697321
 C         3.362001         1.097206        -1.636706
 C         2.567680         0.318417        -0.578559
 O         1.888495         1.244171         0.400997
 H        -0.829786        -0.186673        -0.408914
 H         0.391123        -1.383629        -0.374633
 H        -0.009506        -0.345317         0.974136
 H        -0.010755         0.470543        -2.488019
 H        -0.360060         1.951028        -1.540508
 H         0.770264         2.252635        -3.872865
 H         3.574795         2.303266        -3.472102
 H         3.759826         0.284344        -2.284524
 H         4.246683         1.530713        -1.148783
 H         2.991223        -0.606165        -0.179411
