19
Iteration:  2546
 C         0.154401        -0.451561        -0.097483
 C         1.046900         0.579992        -0.670013
 C         0.377229         1.273120        -1.860176
 C         1.267832         1.974288        -2.786453
 O         2.035272         3.076190        -2.222453
 C         2.832909         1.864982        -2.698020
 C         3.584017         1.184444        -1.524375
 C         2.505442         0.443433        -0.639064
 O         1.867051         1.380377         0.243899
 H         0.348527        -1.440085        -0.412161
 H         0.095530        -0.533261         0.950440
 H        -0.847321        -0.201433        -0.407681
 H        -0.192365         0.492456        -2.508703
 H        -0.327972         2.027390        -1.583417
 H         0.843480         2.286562        -3.789102
 H         3.248652         1.896842        -3.705845
 H         4.321744         0.473519        -1.953773
 H         4.005927         1.878155        -0.871310
 H         2.881139        -0.459058        -0.139407
