19
Iteration:  1209
 C         0.084331        -0.249293        -0.013959
 C         1.182435         0.620505        -0.652878
 C         0.429495         1.273829        -1.809155
 C         1.172383         2.259846        -2.650368
 O         2.069671         3.054615        -1.932547
 C         2.689255         2.017501        -2.656940
 C         3.361061         0.929311        -1.911202
 C         2.557205         0.212316        -0.821524
 O         2.107486         1.253250         0.213359
 H         0.111464        -1.223950        -0.452231
 H         0.169647        -0.456591         1.009397
 H        -0.933461         0.202908        -0.345846
 H         0.029428         0.518473        -2.400791
 H        -0.468188         1.730314        -1.383982
 H         0.723896         2.708699        -3.610414
 H         3.222856         2.381648        -3.631523
 H         3.436800         0.084240        -2.699527
 H         4.365721         1.336025        -1.601458
 H         2.842855        -0.827716        -0.556477
