19
Iteration:  3662charge 0 multiplicity 1
 C         0.177190        -0.448058        -0.159283
 C         1.043752         0.579433        -0.737332
 C         0.368926         1.267663        -1.851200
 C         1.305986         1.970040        -2.736936
 O         2.076223         3.051960        -2.226794
 C         2.849834         1.849245        -2.608700
 C         3.490463         1.179370        -1.511963
 C         2.555850         0.474208        -0.643736
 O         1.793098         1.387915         0.183446
 H         0.081863        -1.372476        -0.748327
 H         0.498038        -0.686242         0.915981
 H        -0.895119        -0.025932        -0.035087
 H        -0.228514         0.542666        -2.418300
 H        -0.438998         2.115606        -1.306120
 H         0.838761         2.056404        -3.697984
 H         3.521793         2.015904        -3.468914
 H         4.184944         0.428393        -1.915969
 H         4.084822         1.919261        -0.913780
 H         2.976294        -0.345719        -0.118965
