19
Iteration:   159charge 0 multiplicity 1
 C         0.009434        -0.468335        -0.116750
 C         1.120241         0.405991        -0.633199
 C         0.446516         1.528310        -1.473523
 C         1.183789         2.210818        -2.642066
 O         2.129302         3.177209        -2.289618
 C         2.769331         2.053247        -2.701730
 C         3.402554         0.995330        -1.863685
 C         2.572215         0.322480        -0.795480
 O         1.997382         1.090743         0.280892
 H         0.415597        -1.354147         0.544752
 H        -0.664830         0.169208         0.563411
 H        -0.692931        -0.793971        -0.992216
 H        -0.555494         1.216663        -1.892333
 H         0.325855         2.442627        -0.766720
 H         0.714398         2.350152        -3.684239
 H         3.249277         2.287981        -3.708342
 H         3.598890         0.302706        -2.696163
 H         4.450424         1.200695        -1.538638
 H         3.128358        -0.541562        -0.357251
