19
Iteration:  4282charge 0 multiplicity 1
 C         0.281597        -0.496928         0.110519
 C         0.978783         0.492936        -0.798150
 C         0.469513         1.180352        -1.949985
 C         1.329490         2.122184        -2.786323
 O         2.142072         3.219043        -2.183380
 C         2.827266         1.988306        -2.651214
 C         3.483529         1.056314        -1.589769
 C         2.474117         0.390620        -0.585106
 O         1.631781         1.377597         0.158731
 H         0.390295        -1.486227        -0.379033
 H         0.717276        -0.391815         1.147183
 H        -0.740187        -0.307414         0.074257
 H         0.032249         0.522922        -2.628057
 H        -0.446708         1.820762        -1.582370
 H         1.048676         2.268598        -3.864976
 H         3.360409         2.224940        -3.546358
 H         3.931181         0.167459        -2.186035
 H         4.386383         1.430611        -0.988812
 H         2.836550        -0.444558        -0.039611
