19
Iteration:  1963charge 0 multiplicity 1
 C         0.226413        -0.701990        -0.054400
 C         1.020281         0.488973        -0.727718
 C         0.296462         1.334355        -1.822594
 C         1.360074         2.001679        -2.693901
 O         2.217191         3.203873        -2.417213
 C         2.817612         1.909554        -2.764153
 C         3.530569         1.132815        -1.569154
 C         2.457324         0.518582        -0.495007
 O         1.693017         1.450566         0.293673
 H         0.483755        -1.689604        -0.472530
 H         0.643612        -0.690380         0.999941
 H        -0.858472        -0.527808        -0.059074
 H        -0.211994         0.598027        -2.540472
 H        -0.451993         2.075142        -1.495192
 H         0.779656         2.224426        -3.714638
 H         3.339959         1.828118        -3.831188
 H         4.089193         0.244927        -1.943490
 H         4.282026         1.673091        -0.997508
 H         2.871329        -0.254502         0.163196
