19
Iteration:  3434charge 0 multiplicity 1
 C         0.319446        -0.663290        -0.488446
 C         1.067448         0.627902        -0.588051
 C         0.490483         1.624897        -1.585350
 C         1.301092         1.946831        -2.844870
 O         2.124868         3.102174        -2.747907
 C         2.739157         1.731679        -2.703806
 C         3.329017         1.274279        -1.384134
 C         2.513812         0.512830        -0.434837
 O         1.752781         1.208241         0.581174
 H         0.169936        -1.014446        -1.468552
 H         0.852470        -1.411671        -0.004785
 H        -0.613922        -0.454480         0.051838
 H        -0.466672         1.123094        -1.953098
 H         0.297240         2.565364        -1.029183
 H         0.704359         2.090775        -3.760512
 H         3.341804         1.432634        -3.571697
 H         4.164183         0.630285        -1.694586
 H         3.691102         2.137749        -0.841265
 H         2.727093        -0.579842        -0.094533
