19
Iteration:  2976charge 0 multiplicity 1
 C         0.287358        -0.579651         0.049279
 C         0.998480         0.607782        -0.691076
 C         0.435695         1.130445        -2.016640
 C         1.436128         2.034745        -2.733766
 O         2.110382         3.060853        -2.123348
 C         2.877905         1.999293        -2.672269
 C         3.436245         1.049685        -1.677852
 C         2.443031         0.629948        -0.579495
 O         1.636790         1.463782         0.211457
 H        -0.138273        -1.315264        -0.637547
 H         1.006227        -1.016595         0.687808
 H        -0.557193        -0.206499         0.742130
 H         0.051503         0.346793        -2.654669
 H        -0.549491         1.806682        -1.844633
 H         0.935533         2.409111        -3.764263
 H         3.448525         2.199476        -3.686481
 H         3.643705         0.011098        -2.227649
 H         4.411401         1.317464        -1.385956
 H         2.847068        -0.253951        -0.156915
