19
Iteration:  4653
 C         0.190339        -0.638492        -0.406103
 C         1.050912         0.606536        -0.618928
 C         0.428729         1.611326        -1.564464
 C         1.344111         1.887893        -2.781128
 O         2.119699         3.062872        -2.746657
 C         2.799316         1.789913        -2.664489
 C         3.452581         1.400771        -1.371685
 C         2.525427         0.489912        -0.547099
 O         1.767556         1.156761         0.533853
 H        -0.592716        -0.695917        -1.235390
 H         0.685237        -1.608834        -0.585452
 H        -0.410925        -0.591503         0.435725
 H        -0.511666         1.110041        -2.054049
 H         0.278275         2.577973        -1.063482
 H         0.747475         1.780787        -3.773988
 H         3.233093         1.565265        -3.631227
 H         4.427074         0.941129        -1.597600
 H         3.553781         2.288923        -0.764395
 H         2.936557        -0.512363        -0.266024
