19
Iteration:  3278
 C         0.209851        -0.693184        -0.573997
 C         1.095990         0.590880        -0.617132
 C         0.567111         1.752831        -1.545503
 C         1.237311         1.856047        -2.856765
 O         2.071481         3.099108        -2.896062
 C         2.758150         1.649283        -2.689051
 C         3.439167         1.432000        -1.343876
 C         2.531347         0.565173        -0.355428
 O         1.715399         1.069073         0.676991
 H        -0.125977        -0.864572        -1.578465
 H         0.708290        -1.580684        -0.259337
 H        -0.620258        -0.578321         0.056299
 H        -0.580280         1.829838        -1.512171
 H         0.802745         2.649401        -1.039700
 H         0.788766         1.595169        -3.804064
 H         3.284152         1.397703        -3.634977
 H         4.442264         1.140723        -1.525699
 H         3.635065         2.428716        -0.883666
 H         3.038559        -0.407381         0.077306
