19
Iteration:  1437
 C         0.049693        -0.444751        -0.136365
 C         1.161914         0.497873        -0.711989
 C         0.422337         1.281381        -1.829626
 C         1.232207         2.176855        -2.670837
 O         2.156845         3.115466        -2.175449
 C         2.648792         1.932571        -2.734055
 C         3.482235         0.958062        -1.845727
 C         2.649910         0.486429        -0.494912
 O         1.838925         1.380241         0.349582
 H         0.513353        -1.415410         0.076708
 H        -0.284132        -0.297642         1.014347
 H        -0.715181        -0.448424        -0.972289
 H         0.123970         0.358327        -2.445681
 H        -0.403475         1.757480        -1.364343
 H         0.756406         2.446409        -3.557627
 H         3.030571         2.070997        -3.739302
 H         3.811345         0.129444        -2.427894
 H         4.430792         1.445274        -1.641348
 H         3.079856        -0.481681        -0.024487
