19
Iteration:  1044charge 0 multiplicity 1
 C         0.183262        -0.572903         0.010451
 C         1.024339         0.479109        -0.645935
 C         0.402762         1.631574        -1.449649
 C         1.189965         2.228838        -2.638953
 O         2.291262         3.262064        -2.358588
 C         2.661251         1.966269        -2.768747
 C         3.407140         1.099653        -1.755419
 C         2.426199         0.249087        -0.901769
 O         1.993580         0.982559         0.248737
 H        -0.135909        -0.157127         1.038655
 H        -0.848225        -0.688476        -0.446667
 H         0.683397        -1.521867         0.034609
 H        -0.429105         1.181919        -1.950506
 H        -0.081464         2.503413        -0.944843
 H         0.693443         2.394625        -3.602813
 H         3.219541         1.998167        -3.770314
 H         4.117279         0.475194        -2.278989
 H         3.899221         1.807917        -1.122839
 H         2.833276        -0.745705        -0.789356
