19
Iteration:  1284
 C         0.307379        -0.692249         0.058113
 C         0.991239         0.563021        -0.724721
 C         0.302915         1.560856        -1.740604
 C         1.270958         2.264469        -2.679579
 O         2.183628         3.183425        -2.163246
 C         2.768946         1.923356        -2.683210
 C         3.381882         0.873874        -1.764034
 C         2.446653         0.319661        -0.776097
 O         1.932770         1.350242         0.177104
 H        -0.798126        -0.801947        -0.122256
 H         0.825023        -1.677126        -0.095539
 H         0.320547        -0.360748         1.036518
 H        -0.512984         0.988428        -2.402616
 H        -0.141034         2.341149        -1.141955
 H         0.729722         2.698880        -3.495504
 H         3.373841         2.080725        -3.682425
 H         3.549614         0.014173        -2.475096
 H         4.350915         1.215679        -1.282152
 H         2.841755        -0.638120        -0.227816
