19
Iteration:  2807
 C         0.361633        -0.697144        -0.301734
 C         1.022623         0.584668        -0.576679
 C         0.372491         1.528469        -1.672138
 C         1.311941         2.001696        -2.821939
 O         2.219843         3.104907        -2.547806
 C         2.814679         1.832184        -2.787861
 C         3.411589         1.183392        -1.605116
 C         2.431168         0.609014        -0.416711
 O         1.628567         1.273511         0.522108
 H         0.325415        -1.344594        -1.172446
 H         1.151960        -1.297337         0.245976
 H        -0.488629        -0.632878         0.335674
 H        -0.372171         0.989692        -2.228509
 H        -0.256139         2.357352        -1.187647
 H         0.957683         1.928136        -3.790136
 H         3.309391         1.822331        -3.691628
 H         3.810875         0.247406        -2.012506
 H         4.259041         1.754760        -1.255714
 H         3.043360        -0.231747        -0.028742
