19
Iteration:  2696charge 0 multiplicity 1
 C         0.175271        -0.550515        -0.015438
 C         1.047534         0.564359        -0.628425
 C         0.467187         1.289390        -1.904471
 C         1.414537         2.011770        -2.868363
 O         2.038497         3.232728        -2.453152
 C         2.789855         1.969462        -2.618797
 C         3.435961         1.145378        -1.540856
 C         2.485615         0.400273        -0.544726
 O         1.777811         1.328317         0.340948
 H        -0.209461        -1.255281        -0.888742
 H         0.889648        -1.152456         0.496839
 H        -0.633929        -0.375120         0.745347
 H        -0.087406         0.589648        -2.507944
 H        -0.395887         1.995372        -1.567160
 H         1.063577         2.015626        -3.862153
 H         3.412199         1.988147        -3.440337
 H         3.978417         0.312883        -1.984557
 H         4.242916         1.676631        -0.942690
 H         2.919798        -0.573073        -0.189225
