19
Iteration:  4276charge 0 multiplicity 1
 C         0.297882        -0.530814         0.043216
 C         1.028162         0.489715        -0.784309
 C         0.395312         1.244655        -1.942706
 C         1.350060         2.112748        -2.771499
 O         2.152900         3.186636        -2.207908
 C         2.792706         1.958702        -2.590201
 C         3.498689         1.053235        -1.580816
 C         2.484805         0.423772        -0.617216
 O         1.632317         1.396372         0.161415
 H         0.331550        -1.599792        -0.218134
 H         0.775967        -0.419114         0.984034
 H        -0.867118        -0.293548         0.195917
 H        -0.022548         0.594219        -2.818137
 H        -0.379036         1.879322        -1.562183
 H         0.916327         2.291935        -3.743090
 H         3.331846         2.003389        -3.590539
 H         4.009375         0.153145        -1.924943
 H         4.265728         1.614190        -1.045397
 H         2.934067        -0.419303        -0.002025
