19
Iteration:   237charge 0 multiplicity 1
 C         0.183728        -0.540984        -0.025897
 C         1.118678         0.505580        -0.716274
 C         0.352233         1.516873        -1.603735
 C         1.231338         2.298911        -2.539926
 O         2.235604         3.086873        -1.976214
 C         2.675269         1.977880        -2.768047
 C         3.355111         0.812777        -2.000994
 C         2.555988         0.358431        -0.799076
 O         1.917594         1.337691         0.150638
 H         0.508804        -0.778902         0.953741
 H        -0.894717        -0.097207         0.024189
 H         0.182856        -1.584290        -0.645529
 H        -0.466685         1.004036        -2.237852
 H        -0.217820         2.231216        -0.919120
 H         0.701775         2.840277        -3.380263
 H         3.259549         2.187362        -3.704993
 H         3.449436        -0.053943        -2.710864
 H         4.396625         1.031516        -1.724212
 H         3.007031        -0.575160        -0.378936
