19
Iteration:  1287
 C         0.311396        -0.699644         0.010729
 C         0.988307         0.585526        -0.721550
 C         0.308122         1.572648        -1.733830
 C         1.274469         2.252496        -2.673214
 O         2.188328         3.152798        -2.174494
 C         2.740664         1.934517        -2.688301
 C         3.372227         0.884738        -1.743754
 C         2.472978         0.306567        -0.771822
 O         1.920541         1.339883         0.187499
 H        -0.704216        -0.692574        -0.059039
 H         0.738811        -1.600754        -0.100957
 H         0.348737        -0.372003         1.107684
 H        -0.331229         1.031745        -2.341066
 H        -0.131156         2.389948        -1.131552
 H         0.639335         2.718578        -3.550957
 H         3.318278         2.073517        -3.666509
 H         3.549406        -0.025291        -2.446701
 H         4.353548         1.235565        -1.330130
 H         2.898812        -0.531380        -0.217735
