19
Iteration:  2426charge 0 multiplicity 1
 C         0.157578        -0.456176        -0.087629
 C         1.041700         0.565962        -0.702041
 C         0.457751         1.246420        -1.839815
 C         1.291168         1.976875        -2.853006
 O         2.133816         3.142351        -2.424620
 C         2.778602         1.883814        -2.643978
 C         3.509613         1.262861        -1.462531
 C         2.542101         0.430131        -0.584442
 O         1.730909         1.268390         0.341520
 H        -0.688345        -0.863888        -0.699023
 H         0.798638        -1.350649         0.243429
 H        -0.345286         0.019084         0.798791
 H        -0.180407         0.490559        -2.445282
 H        -0.245506         1.885417        -1.394119
 H         0.862844         2.204900        -3.849329
 H         3.471797         1.925438        -3.506858
 H         4.205498         0.594264        -1.950629
 H         3.993114         2.143204        -1.056222
 H         2.985207        -0.390652        -0.119395
