19
Iteration:   521charge 0 multiplicity 1
 C         0.059057        -0.461117         0.053784
 C         1.140325         0.490681        -0.698763
 C         0.359497         1.482952        -1.591687
 C         1.227961         2.249282        -2.501429
 O         2.247927         3.191488        -2.004122
 C         2.650325         2.003996        -2.713734
 C         3.432266         0.901037        -2.003404
 C         2.514871         0.209534        -0.936334
 O         1.983940         1.246071         0.106826
 H        -0.986247        -0.038030        -0.007951
 H         0.060267        -1.519867        -0.431100
 H         0.302583        -0.548889         1.205360
 H        -0.270019         0.938381        -2.217048
 H        -0.250208         2.178001        -0.964603
 H         0.700282         2.725433        -3.347772
 H         3.081895         2.243438        -3.773799
 H         3.787747         0.138638        -2.698616
 H         4.376550         1.259967        -1.521378
 H         2.924362        -0.745629        -0.571840
