19
Iteration:  2439charge 0 multiplicity 1
 C         0.172904        -0.503155        -0.153027
 C         1.127720         0.592742        -0.671824
 C         0.361763         1.400432        -1.842774
 C         1.337794         1.975258        -2.807487
 O         2.041448         3.023484        -2.353032
 C         2.809628         1.818171        -2.727390
 C         3.514914         1.246230        -1.487942
 C         2.600810         0.499064        -0.552373
 O         1.715906         1.324332         0.328456
 H        -0.561095        -0.683803        -0.920951
 H         0.725787        -1.560014         0.125775
 H        -0.372976        -0.200148         0.787104
 H        -0.119001         0.571262        -2.381700
 H        -0.361065         2.115806        -1.535467
 H         0.916797         2.032906        -3.775068
 H         3.325447         1.839259        -3.707995
 H         4.364092         0.601735        -1.680197
 H         4.028315         1.968618        -0.795212
 H         2.863701        -0.445408        -0.197182
