19
Iteration:  3739
 C         0.184173        -0.709935        -0.277718
 C         1.018505         0.513444        -0.643196
 C         0.361647         1.486496        -1.671642
 C         1.286149         2.053352        -2.810326
 O         2.190003         3.162140        -2.616390
 C         2.820386         1.758595        -2.700558
 C         3.445751         1.261324        -1.471032
 C         2.541971         0.533949        -0.452850
 O         1.763629         1.303151         0.418820
 H        -0.206366        -1.095130        -1.202581
 H         0.740234        -1.600464         0.220235
 H        -0.717101        -0.502548         0.391693
 H        -0.384729         1.003909        -2.203718
 H         0.011398         2.372397        -1.036953
 H         0.870216         1.850889        -3.766528
 H         3.353632         1.678716        -3.657723
 H         4.228288         0.550982        -1.803706
 H         3.950710         2.024894        -0.825208
 H         3.029133        -0.341005        -0.018256
