19
Iteration:  1063
 C         0.153227        -0.600203        -0.032588
 C         0.998202         0.519222        -0.668594
 C         0.389602         1.658466        -1.519462
 C         1.322279         2.191679        -2.620064
 O         2.107279         3.292269        -2.349994
 C         2.760825         1.998347        -2.761655
 C         3.395378         0.985890        -1.799859
 C         2.471050         0.266614        -0.825785
 O         1.995677         1.040709         0.303736
 H         0.267966        -0.502955         1.138790
 H        -0.981020        -0.659874        -0.334425
 H         0.568029        -1.523350        -0.274356
 H        -0.584984         1.570378        -1.910568
 H         0.263806         2.395135        -0.792720
 H         0.771432         2.386054        -3.507296
 H         3.104820         1.946734        -3.916759
 H         3.817360         0.250788        -2.586535
 H         4.295878         1.460382        -1.276757
 H         2.983993        -0.743575        -0.452586
