19
Iteration:  2401
 C         0.091330        -0.564823         0.162193
 C         1.013804         0.448061        -0.682366
 C         0.446424         1.256816        -1.891435
 C         1.447460         2.050535        -2.821302
 O         2.056718         3.261172        -2.477783
 C         2.922146         2.024341        -2.695613
 C         3.439406         1.187824        -1.513002
 C         2.493656         0.386988        -0.565077
 O         1.763897         1.289153         0.295124
 H        -0.519838        -1.188890        -0.628816
 H         0.552024        -1.200772         0.783601
 H        -0.813746        -0.040598         0.548704
 H         0.071852         0.491600        -2.699278
 H        -0.463346         1.863483        -1.535109
 H         0.999163         2.185696        -3.916941
 H         3.597847         2.003770        -3.567464
 H         4.014365         0.396937        -2.080225
 H         4.123436         1.911039        -1.110017
 H         3.093770        -0.548619        -0.180794
