19
Iteration:  2795
 C         0.424819        -0.690915        -0.246026
 C         1.033978         0.659644        -0.641888
 C         0.378275         1.528845        -1.708287
 C         1.310204         2.012738        -2.831446
 O         2.138994         3.153354        -2.616085
 C         2.805139         1.871362        -2.780273
 C         3.456222         1.113802        -1.523889
 C         2.533249         0.486294        -0.500655
 O         1.571900         1.275346         0.590942
 H         0.233305        -1.234321        -1.209202
 H         1.048897        -1.169453         0.488576
 H        -0.593957        -0.658603         0.133570
 H        -0.480899         0.906829        -2.058216
 H         0.011480         2.489999        -1.204503
 H         0.817127         2.075148        -3.712879
 H         3.348185         1.723382        -3.637379
 H         3.900179         0.220241        -1.938638
 H         4.312895         1.633713        -1.026522
 H         2.755383        -0.470905        -0.030070
