19
Iteration:   209
 C         0.303958        -0.631918        -0.061534
 C         1.034938         0.676328        -0.622142
 C         0.246925         1.582918        -1.632108
 C         1.188751         2.313844        -2.559700
 O         2.400849         3.079246        -2.054459
 C         2.652366         1.901673        -2.820473
 C         3.267063         0.918683        -1.851003
 C         2.418058         0.347799        -0.844221
 O         2.005752         1.232160         0.203995
 H         0.876844        -0.893453         0.869917
 H        -0.701360        -0.613218         0.136960
 H         0.443899        -1.391965        -0.746082
 H        -0.153001         0.863693        -2.322630
 H        -0.560394         2.186295        -1.321058
 H         0.737190         2.869301        -3.361191
 H         2.998249         1.965327        -3.855578
 H         3.779183         0.113816        -2.409241
 H         4.140706         1.441108        -1.405535
 H         2.636372        -0.683013        -0.662278
