19
Iteration:  2286
 C         0.255511        -0.556176         0.120492
 C         1.060020         0.530403        -0.628850
 C         0.466381         1.162605        -2.047000
 C         1.383203         2.171960        -2.877294
 O         2.196948         3.215916        -2.284899
 C         2.847882         1.993307        -2.639599
 C         3.364400         1.012668        -1.628264
 C         2.512684         0.386866        -0.570476
 O         1.549073         1.408353         0.257825
 H        -0.002386        -1.382279        -0.479496
 H         0.999013        -0.887006         0.934087
 H        -0.621280        -0.111907         0.541648
 H        -0.067852         0.510074        -2.681063
 H        -0.393974         1.803176        -1.550732
 H         1.120148         2.427354        -3.837129
 H         3.415694         2.050594        -3.563734
 H         3.734725         0.137833        -2.178956
 H         4.273191         1.457434        -1.133409
 H         2.955055        -0.255439         0.243264
