19
Iteration:  3199
 C         0.131990        -0.630482        -0.353782
 C         1.066897         0.520244        -0.659482
 C         0.587892         1.651356        -1.546760
 C         1.352427         1.898319        -2.765182
 O         2.120074         3.153404        -2.890325
 C         2.838609         1.815842        -2.761994
 C         3.308439         1.477524        -1.380446
 C         2.567862         0.484028        -0.500537
 O         1.689959         0.990554         0.604142
 H         0.202206        -1.478447        -1.047332
 H         0.488841        -1.174892         0.599178
 H        -0.808302        -0.311995        -0.287637
 H        -0.558164         1.638134        -1.581257
 H         0.938193         2.470844        -0.785332
 H         0.930559         1.529661        -3.695326
 H         3.290435         1.358715        -3.655932
 H         4.328542         1.232929        -1.423470
 H         3.074728         2.515391        -1.024391
 H         2.937803        -0.545502        -0.299388
