19
Iteration:  4724
 C         0.180844        -0.563706        -0.341723
 C         1.036565         0.583778        -0.592668
 C         0.448236         1.545405        -1.617297
 C         1.326289         1.927413        -2.738517
 O         2.176100         3.086063        -2.696526
 C         2.823750         1.803024        -2.689221
 C         3.399113         1.433307        -1.390960
 C         2.495778         0.403161        -0.610904
 O         1.780931         1.126241         0.462211
 H        -0.045555        -1.308753        -1.016594
 H         0.623951        -1.190361         0.414379
 H        -0.853838        -0.163122        -0.050574
 H        -0.422680         0.975601        -2.018507
 H         0.060132         2.466388        -1.144781
 H         0.794723         1.805066        -3.606377
 H         3.369136         1.617853        -3.641143
 H         4.413730         1.126142        -1.550775
 H         3.344695         2.399499        -0.876227
 H         2.917612        -0.572058        -0.377424
