19
Iteration:  1390
 C         0.232891        -0.588138         0.091150
 C         0.942148         0.566993        -0.639290
 C         0.327028         1.493147        -1.789782
 C         1.354671         2.070768        -2.783692
 O         2.138498         3.194059        -2.272096
 C         2.784964         1.969046        -2.692358
 C         3.467077         1.077484        -1.641704
 C         2.447530         0.306236        -0.834242
 O         1.877122         1.204382         0.234481
 H         0.811433        -0.683827         1.076456
 H        -0.749097        -0.228047         0.664362
 H         0.105865        -1.342530        -0.604446
 H        -0.543671         1.107001        -2.250677
 H         0.022087         2.452195        -1.285748
 H         0.929839         2.170383        -3.792650
 H         3.272625         2.047861        -3.597272
 H         4.196630         0.451543        -2.174309
 H         4.133167         1.591420        -0.942949
 H         2.931263        -0.542076        -0.405454
