19
Iteration:  1674
 C         0.207301        -0.581931        -0.083594
 C         1.027647         0.556072        -0.591951
 C         0.492251         1.201980        -1.806275
 C         1.351717         2.015038        -2.791493
 O         2.125496         3.242203        -2.351021
 C         2.799137         1.996139        -2.717527
 C         3.383493         1.074341        -1.677651
 C         2.479047         0.474375        -0.534728
 O         1.776329         1.376122         0.340334
 H         0.121964        -0.532644         1.053296
 H        -0.835332        -0.380293        -0.393851
 H         0.464276        -1.571564        -0.469955
 H         0.184405         0.378380        -2.460626
 H        -0.363664         1.763507        -1.541154
 H         0.650856         2.385687        -3.675649
 H         3.626511         2.119895        -3.596682
 H         3.636984         0.198216        -2.302896
 H         4.366707         1.457628        -1.365955
 H         2.867821        -0.384312        -0.019753
