19
Iteration:  2663charge 0 multiplicity 1
 C         0.198357        -0.542851        -0.022173
 C         1.064581         0.479824        -0.734941
 C         0.348890         1.170920        -1.921609
 C         1.317684         1.986533        -2.803113
 O         2.124266         3.049722        -2.116016
 C         2.845764         1.925122        -2.663134
 C         3.511986         1.056518        -1.618072
 C         2.592966         0.626941        -0.561995
 O         1.650992         1.548370         0.176934
 H        -0.387503        -1.208094        -0.843500
 H         0.841953        -1.271793         0.373734
 H        -0.480919        -0.148552         0.797652
 H        -0.311983         0.658675        -2.548443
 H        -0.231649         2.045666        -1.416787
 H         1.071875         2.319127        -3.783276
 H         3.332700         2.201877        -3.545371
 H         3.804837         0.161605        -2.177965
 H         4.413781         1.681903        -1.306648
 H         3.012554        -0.291422        -0.007631
