19
Iteration:  1676
 C         0.202151        -0.588626        -0.059702
 C         1.037206         0.547903        -0.593108
 C         0.489295         1.189394        -1.819668
 C         1.371870         2.015346        -2.787292
 O         2.109873         3.251205        -2.344975
 C         2.809906         1.989114        -2.716950
 C         3.377679         1.085803        -1.686536
 C         2.480359         0.462541        -0.539585
 O         1.777492         1.385357         0.334143
 H         0.125598        -0.545676         0.968380
 H        -0.908310        -0.411448        -0.324698
 H         0.395379        -1.460117        -0.500614
 H         0.147382         0.406370        -2.433796
 H        -0.401675         1.848325        -1.568588
 H         0.727941         2.367000        -3.640186
 H         3.614307         2.115517        -3.580304
 H         3.651081         0.185254        -2.304814
 H         4.372871         1.453617        -1.340742
 H         2.893340        -0.402257        -0.050064
