19
Iteration:  2344charge 0 multiplicity 1
 C         0.198954        -0.487051        -0.171479
 C         1.116634         0.630698        -0.712737
 C         0.412315         1.268177        -1.943138
 C         1.265012         2.014561        -2.863264
 O         2.052540         2.981220        -2.037998
 C         2.734175         1.888287        -2.637906
 C         3.538732         0.925347        -1.630579
 C         2.566634         0.562613        -0.516839
 O         1.766428         1.569520         0.170390
 H         0.465657        -1.401828        -0.720461
 H         0.401240        -0.739225         0.907706
 H        -0.877323        -0.396012        -0.145071
 H         0.066002         0.374337        -2.474644
 H        -0.509306         1.824689        -1.423824
 H         0.818234         2.495274        -3.779870
 H         3.245962         2.026450        -3.598264
 H         4.203342         0.040208        -1.789868
 H         4.216654         1.676124        -1.146755
 H         2.910642        -0.186530         0.376457
