19
Iteration:  2133
 C         0.274449        -0.544692        -0.228229
 C         1.129792         0.564408        -0.729149
 C         0.381182         1.296412        -1.801654
 C         1.294530         1.988533        -2.752756
 O         2.091255         3.016215        -2.211459
 C         2.817290         1.845913        -2.702233
 C         3.497085         1.059332        -1.599268
 C         2.531196         0.646987        -0.510740
 O         1.658584         1.460887         0.254279
 H         0.186883        -1.267638        -0.980819
 H         0.395925        -0.937309         0.777268
 H        -0.658954        -0.065516        -0.062455
 H        -0.349116         0.719487        -2.240954
 H        -0.131277         2.123475        -1.234992
 H         0.902189         2.105462        -3.713385
 H         3.385752         1.956010        -3.639495
 H         3.993120         0.177731        -2.020294
 H         4.298576         1.691407        -1.146486
 H         2.906273        -0.267340         0.078623
