19
Iteration:  4801
 C         0.208548        -0.776472        -0.203656
 C         1.026129         0.540279        -0.698234
 C         0.335156         1.558446        -1.723998
 C         1.357414         1.974678        -2.852354
 O         2.130142         3.133140        -2.442447
 C         2.883199         1.900791        -2.688240
 C         3.436275         1.146172        -1.515661
 C         2.531962         0.537410        -0.557295
 O         1.711508         1.395388         0.373127
 H         0.168840        -1.602387        -0.902110
 H         0.825477        -1.223170         0.659722
 H        -0.843211        -0.800778         0.282128
 H        -0.643184         0.930550        -2.081683
 H         0.136646         2.435032        -1.011846
 H         0.975820         1.893358        -3.811477
 H         3.399326         1.811884        -3.682376
 H         3.921096         0.290196        -1.969510
 H         4.265051         1.603606        -0.975581
 H         3.015954        -0.209699         0.081795
