19
Iteration:   464
 C         0.195204        -0.399132        -0.027851
 C         1.057666         0.629741        -0.640129
 C         0.387960         1.594009        -1.624975
 C         1.194488         2.234581        -2.657504
 O         2.094272         3.268147        -2.210717
 C         2.676990         1.988618        -2.712788
 C         3.366602         0.942312        -1.861805
 C         2.567150         0.215117        -0.846325
 O         2.078102         0.915258         0.319403
 H        -0.356135         0.080922         0.942122
 H        -0.622907        -0.793156        -0.787878
 H         0.741969        -1.282820         0.200243
 H        -0.348783         0.923254        -2.042877
 H        -0.163853         2.390203        -1.095800
 H         0.766186         2.504898        -3.648434
 H         3.249440         2.211427        -3.691827
 H         3.720678         0.104819        -2.467725
 H         4.213334         1.482087        -1.342592
 H         2.735743        -0.874911        -0.729547
