19
Iteration:  2183
 C         0.260763        -0.682424        -0.063988
 C         0.997040         0.548848        -0.636819
 C         0.376039         1.393812        -1.768884
 C         1.337628         2.063309        -2.759336
 O         2.253122         3.199893        -2.517671
 C         2.901105         1.956251        -2.701099
 C         3.353311         1.129919        -1.527293
 C         2.425007         0.412869        -0.631624
 O         1.682961         1.367282         0.368834
 H         0.533096        -1.597812        -0.783438
 H         0.749439        -0.824478         0.932685
 H        -0.809821        -0.611244         0.378675
 H         0.054292         0.519579        -2.512755
 H        -0.529855         1.941988        -1.535038
 H         0.808067         2.164989        -3.802451
 H         3.578184         1.868784        -3.614353
 H         3.958327         0.373004        -2.078418
 H         4.036416         1.694976        -0.873192
 H         2.867443        -0.314941        -0.052549
