19
Iteration:  1293charge 0 multiplicity 1
 C         0.315539        -0.622023        -0.052941
 C         1.015884         0.607785        -0.695423
 C         0.358393         1.590680        -1.676220
 C         1.252019         2.223287        -2.688578
 O         2.217972         3.110614        -2.179769
 C         2.679610         1.943272        -2.704436
 C         3.353218         0.907785        -1.760007
 C         2.499687         0.332226        -0.726124
 O         1.882886         1.292610         0.199389
 H        -0.877328        -0.557136        -0.137405
 H         0.741741        -1.742646        -0.273752
 H         0.519284        -0.534075         1.010251
 H        -0.362294         0.931021        -2.402004
 H        -0.221089         2.366576        -1.158981
 H         0.748226         2.540325        -3.532518
 H         3.206776         2.063643        -3.668019
 H         3.660116         0.067159        -2.342797
 H         4.327264         1.281788        -1.418074
 H         2.991067        -0.511027        -0.133292
