19
Iteration:   199
 C         0.331197        -0.610224        -0.065482
 C         1.008422         0.653649        -0.621709
 C         0.277936         1.588206        -1.629154
 C         1.198223         2.383495        -2.609890
 O         2.366651         3.098580        -2.173190
 C         2.653028         1.896605        -2.763619
 C         3.312402         0.953910        -1.860961
 C         2.422709         0.267783        -0.861757
 O         1.977594         1.173034         0.306039
 H         0.863343        -1.030480         0.871344
 H        -0.635404        -0.374082         0.217219
 H         0.286737        -1.307417        -0.750564
 H        -0.145569         0.905898        -2.316581
 H        -0.575629         2.071560        -1.159385
 H         0.576513         2.958458        -3.350678
 H         3.177555         2.054712        -3.755848
 H         3.648135         0.146381        -2.498925
 H         4.183462         1.466120        -1.348248
 H         2.713780        -0.688751        -0.465280
