19
Iteration:  4560
 C         0.163849        -0.528887        -0.391010
 C         1.097521         0.567161        -0.638318
 C         0.491965         1.615617        -1.549314
 C         1.313387         1.876312        -2.826622
 O         2.016821         3.138196        -2.783248
 C         2.772348         1.797393        -2.646485
 C         3.441046         1.389297        -1.371341
 C         2.587028         0.435983        -0.530703
 O         1.745805         1.033883         0.511876
 H         0.603923        -1.404873        -0.806053
 H         0.392977        -0.650103         0.667715
 H        -0.932999        -0.271357        -0.746859
 H        -0.446938         1.341036        -1.894683
 H         0.522139         2.652369        -1.018363
 H         0.902538         1.748231        -3.785926
 H         3.460040         1.534148        -3.487313
 H         4.494299         0.935113        -1.570573
 H         3.592785         2.268106        -0.644001
 H         2.833305        -0.602144        -0.321404
