19
Iteration:  1727
 C         0.276216        -0.336116         0.012971
 C         1.076708         0.547860        -0.809407
 C         0.386229         1.194271        -1.975612
 C         1.321379         1.977770        -2.778399
 O         2.011641         3.011232        -2.054872
 C         2.794236         1.939338        -2.612728
 C         3.492551         1.120962        -1.586571
 C         2.507912         0.441030        -0.661408
 O         1.773185         1.410393         0.111600
 H         0.883674        -1.106383         0.697384
 H        -0.130179         0.140343         0.864468
 H        -0.660008        -0.707077        -0.606551
 H        -0.186889         0.506079        -2.734101
 H        -0.338315         1.762738        -1.437701
 H         1.082933         2.149731        -3.870596
 H         3.329812         2.088351        -3.544460
 H         4.261799         0.420736        -1.875514
 H         3.986917         1.796777        -0.881741
 H         2.981903        -0.271215         0.023241
