19
Iteration:  2194
 C         0.189604        -0.629185        -0.079283
 C         1.000028         0.623787        -0.629844
 C         0.425133         1.351471        -1.790105
 C         1.330586         2.055675        -2.805317
 O         2.176597         3.179976        -2.526842
 C         2.844288         1.989974        -2.658661
 C         3.448917         1.145287        -1.544347
 C         2.514102         0.461580        -0.529882
 O         1.705289         1.260367         0.352349
 H         0.092348        -1.674428        -0.636883
 H         0.799861        -0.863113         0.815886
 H        -0.929645        -0.351826         0.091417
 H        -0.114402         0.483918        -2.363010
 H        -0.401219         1.984046        -1.473065
 H         0.883580         2.101093        -3.880854
 H         3.481022         1.961691        -3.596235
 H         3.973764         0.289031        -2.018652
 H         4.242680         1.633554        -0.951623
 H         2.865245        -0.433181        -0.135497
