19
Iteration:  1546
 C        -0.000428        -0.433759        -0.046718
 C         1.060125         0.519818        -0.647483
 C         0.495995         1.232294        -1.850074
 C         1.292899         2.098459        -2.699198
 O         2.052274         3.141908        -2.208056
 C         2.758541         1.944404        -2.748819
 C         3.485791         1.115103        -1.762899
 C         2.561862         0.435356        -0.661625
 O         1.939170         1.299947         0.377996
 H        -0.980087        -0.515294        -0.544392
 H         0.455352        -1.596251         0.015847
 H        -0.284821         0.092650         0.944155
 H         0.364612         0.384462        -2.552589
 H        -0.563839         1.701143        -1.814101
 H         0.833521         2.243185        -3.638818
 H         3.268760         2.314260        -3.564559
 H         3.876348         0.284596        -2.388911
 H         4.322662         1.700556        -1.309461
 H         3.027945        -0.466821        -0.242310
