19
Iteration:  1478
 C         0.245165        -0.532278         0.084798
 C         0.978862         0.603380        -0.697745
 C         0.359805         1.263697        -1.916416
 C         1.339682         2.094676        -2.749075
 O         2.176513         3.151849        -2.047600
 C         2.772376         2.043777        -2.647664
 C         3.424276         0.904331        -1.819818
 C         2.461184         0.406067        -0.659394
 O         1.816803         1.439637         0.153708
 H         0.617510        -1.594802        -0.220210
 H         0.757741        -0.506972         1.199456
 H        -0.792594        -0.570934         0.084753
 H         0.066085         0.537087        -2.640994
 H        -0.542347         1.884810        -1.527776
 H         0.835932         2.374055        -3.687344
 H         3.467003         2.309268        -3.435414
 H         3.671608         0.031312        -2.497086
 H         4.379683         1.297081        -1.403246
 H         2.705166        -0.468009        -0.091128
