19
Iteration:  2568charge 0 multiplicity 1
 C         0.098175        -0.376422        -0.018226
 C         1.116000         0.548933        -0.777684
 C         0.410217         1.255807        -1.895799
 C         1.321348         1.897710        -2.867005
 O         1.978098         3.146076        -2.172097
 C         2.816295         2.017315        -2.580535
 C         3.477419         1.073931        -1.610411
 C         2.608427         0.432253        -0.566047
 O         1.828869         1.338620         0.200888
 H         0.296320        -1.404755        -0.166024
 H         0.214473        -0.290669         1.048190
 H        -0.945861        -0.251291        -0.239966
 H        -0.198110         0.458845        -2.493685
 H        -0.257612         1.983966        -1.486922
 H         1.154449         1.873067        -3.980674
 H         3.455656         2.394055        -3.365500
 H         3.936750         0.239500        -2.193929
 H         4.234135         1.623752        -1.134553
 H         3.057580        -0.423467        -0.046387
