19
Iteration:  4395
 C         0.219371        -0.595715         0.095984
 C         0.978388         0.493198        -0.703650
 C         0.480040         1.214186        -1.936284
 C         1.438823         2.023781        -2.786199
 O         2.133299         3.247539        -2.317608
 C         2.882876         2.008770        -2.655862
 C         3.405038         1.089623        -1.563831
 C         2.465154         0.435941        -0.643668
 O         1.633898         1.381274         0.224978
 H        -0.491604        -1.236619        -0.362428
 H         0.858727        -1.246871         0.573709
 H        -0.456406        -0.016397         0.834036
 H         0.093208         0.380512        -2.446834
 H        -0.320753         2.103393        -1.568830
 H         0.898597         2.238226        -3.690967
 H         3.594931         2.315736        -3.479323
 H         4.027865         0.381605        -2.256213
 H         4.237265         1.644983        -0.941519
 H         2.877337        -0.507366        -0.249844
