19
Iteration:  4890charge 0 multiplicity 1
 C         0.117503        -0.329013         0.124128
 C         1.040221         0.552981        -0.782227
 C         0.500114         1.043912        -2.032385
 C         1.402157         1.980741        -2.749190
 O         1.897817         3.083395        -2.023327
 C         2.884950         2.135954        -2.440350
 C         3.503345         0.975989        -1.705106
 C         2.528242         0.448605        -0.705734
 O         1.787116         1.434715         0.053877
 H        -0.211537        -1.205335        -0.459156
 H         0.706714        -0.754029         0.951377
 H        -0.646620         0.450123         0.138618
 H         0.053334         0.140671        -2.643701
 H        -0.401302         1.687057        -1.903857
 H         1.180318         2.157169        -3.704323
 H         3.561999         2.570549        -3.149529
 H         3.649713         0.184978        -2.375356
 H         4.404414         1.228194        -1.179901
 H         3.054801        -0.305834        -0.057576
