19
Iteration:  3340
 C         0.146635        -0.618494        -0.363258
 C         1.003829         0.616636        -0.630087
 C         0.440827         1.649945        -1.552506
 C         1.353410         1.977560        -2.768071
 O         2.191898         3.035268        -2.998337
 C         2.786419         1.765814        -2.653845
 C         3.383574         1.581520        -1.295201
 C         2.509655         0.530764        -0.569484
 O         1.836294         0.891583         0.652555
 H        -0.195914        -1.092302        -1.365784
 H         0.658989        -1.540188         0.224412
 H        -0.762047        -0.245996         0.165392
 H        -0.411557         1.074037        -1.941094
 H        -0.027051         2.625855        -1.120017
 H         0.728194         1.795950        -3.696470
 H         3.388722         1.371260        -3.478147
 H         4.381967         1.078716        -1.323846
 H         3.360779         2.579683        -0.803076
 H         2.977734        -0.384866        -0.533597
