19
Iteration:  2262charge 0 multiplicity 1
 C         0.148368        -0.518724        -0.021773
 C         1.001264         0.561465        -0.723978
 C         0.398161         1.239883        -1.923860
 C         1.381147         1.999721        -2.770005
 O         2.077473         3.130602        -2.293107
 C         2.887685         1.950864        -2.604611
 C         3.480540         1.138810        -1.556954
 C         2.478062         0.484189        -0.585424
 O         1.804193         1.343803         0.215681
 H        -0.491310        -1.293945        -0.539593
 H         0.781594        -0.933954         0.696230
 H        -0.565923         0.190287         0.488742
 H        -0.118795         0.493317        -2.553294
 H        -0.449802         1.888144        -1.656699
 H         1.122219         2.016481        -3.840906
 H         3.463622         2.112368        -3.547130
 H         4.164464         0.365726        -1.882540
 H         4.065267         1.879367        -0.974251
 H         2.656471        -0.431048        -0.102379
