19
Iteration:  1537charge 0 multiplicity 1
 C         0.049473        -0.445708         0.015686
 C         1.072506         0.516481        -0.652427
 C         0.397320         1.215887        -1.868605
 C         1.293822         2.107866        -2.693382
 O         2.073844         3.086419        -2.137481
 C         2.821869         1.984623        -2.743401
 C         3.493812         1.097001        -1.734804
 C         2.548665         0.454912        -0.703749
 O         1.899169         1.333107         0.247551
 H        -0.657576        -0.474407        -0.780584
 H         0.333045        -1.475124         0.360408
 H        -0.363533        -0.006168         1.045122
 H         0.044156         0.432000        -2.609390
 H        -0.503688         1.644672        -1.524406
 H         0.891434         2.351172        -3.641404
 H         3.340520         2.322582        -3.570341
 H         3.951301         0.278923        -2.263886
 H         4.322276         1.685233        -1.333889
 H         2.984814        -0.492978        -0.257023
