19
Iteration:  4181charge 0 multiplicity 1
 C         0.222074        -0.681909        -0.128466
 C         0.997086         0.523663        -0.661330
 C         0.456585         1.531864        -1.689890
 C         1.425111         1.957230        -2.772607
 O         2.112693         3.189083        -2.671549
 C         2.860875         1.905701        -2.728405
 C         3.377937         1.274748        -1.436221
 C         2.481288         0.446015        -0.555250
 O         1.693805         1.211746         0.394428
 H         0.061983        -1.405500        -0.994237
 H         0.815637        -1.079234         0.747541
 H        -0.711199        -0.411967         0.154439
 H        -0.406291         1.072030        -2.210507
 H         0.077599         2.386854        -1.087811
 H         1.053076         1.881949        -3.844296
 H         3.378144         1.672923        -3.639465
 H         4.336963         0.735478        -1.640450
 H         3.749849         1.910110        -0.559348
 H         2.920287        -0.512774        -0.223099
