19
Iteration:  1994charge 0 multiplicity 1
 C         0.286205        -0.588895        -0.107090
 C         1.077952         0.591965        -0.643551
 C         0.480075         1.275114        -1.919929
 C         1.384196         2.008194        -2.900196
 O         2.092444         3.150413        -2.252223
 C         2.800560         1.935659        -2.736476
 C         3.292194         1.019844        -1.612661
 C         2.525198         0.521126        -0.448445
 O         1.707148         1.466147         0.382498
 H         0.248641        -1.365442        -0.831959
 H         0.640070        -0.814051         1.002575
 H        -0.739048        -0.347548         0.107355
 H         0.185738         0.322022        -2.617142
 H        -0.462805         1.788218        -1.916733
 H         0.923429         2.205813        -3.915849
 H         3.545307         2.025848        -3.517642
 H         3.409429         0.133067        -2.268483
 H         4.293169         1.305251        -1.289166
 H         3.038808        -0.112311         0.203973
