19
Iteration:  2324
 C         0.256031        -0.537855        -0.136658
 C         1.037590         0.609214        -0.639803
 C         0.409023         1.126120        -1.922415
 C         1.337348         2.042225        -2.677046
 O         2.180883         3.018300        -2.068642
 C         2.812344         1.896712        -2.687594
 C         3.422136         0.999707        -1.673729
 C         2.512293         0.613028        -0.547177
 O         1.672009         1.616682         0.144756
 H         0.317752        -1.475660        -0.824985
 H         0.468854        -0.811946         0.869457
 H        -0.881168        -0.377424        -0.165745
 H         0.032644         0.251200        -2.573567
 H        -0.427152         1.790511        -1.601918
 H         0.895635         2.302640        -3.739698
 H         3.441934         2.052497        -3.600865
 H         3.628751         0.073851        -2.311641
 H         4.392704         1.368200        -1.319565
 H         3.077094        -0.160308         0.085111
