19
Iteration:  1594
 C         0.197293        -0.604076        -0.031288
 C         1.008946         0.552362        -0.707437
 C         0.404520         1.412410        -1.768949
 C         1.340634         2.034725        -2.779674
 O         2.048082         3.205157        -2.338338
 C         2.786974         1.968960        -2.660411
 C         3.494800         1.038384        -1.604749
 C         2.507365         0.478054        -0.635970
 O         1.854438         1.276375         0.252652
 H        -0.906849        -0.388796         0.183200
 H         0.317627        -1.469575        -0.603715
 H         0.554592        -0.621948         1.091975
 H        -0.332920         0.745087        -2.336217
 H        -0.162514         2.136792        -1.295664
 H         0.948543         2.117821        -3.844027
 H         3.211683         1.975106        -3.691365
 H         4.019814         0.199795        -2.034507
 H         4.178238         1.674512        -1.053654
 H         2.881976        -0.488435        -0.174418
