19
Iteration:  4617charge 0 multiplicity 1
 C         0.311200        -0.669759        -0.407488
 C         1.085731         0.550019        -0.670058
 C         0.440613         1.712143        -1.573152
 C         1.276297         1.981145        -2.727642
 O         2.193001         3.041940        -2.758358
 C         2.750596         1.716292        -2.744868
 C         3.397301         1.361712        -1.392685
 C         2.525971         0.533765        -0.503307
 O         1.657129         1.125071         0.552946
 H        -0.131746        -0.916645        -1.402126
 H         0.993495        -1.489834         0.035269
 H        -0.508349        -0.534452         0.331097
 H        -0.523186         1.452412        -1.924874
 H         0.204010         2.648253        -0.911659
 H         0.769143         1.872613        -3.713876
 H         3.249424         1.376659        -3.604823
 H         4.486071         0.988639        -1.546672
 H         3.530447         2.334063        -0.832044
 H         2.910354        -0.487272        -0.305369
