19
Iteration:   261charge 0 multiplicity 1
 C         0.110047        -0.368254         0.009103
 C         1.120586         0.449630        -0.707633
 C         0.404680         1.386183        -1.737146
 C         1.256074         2.212456        -2.630225
 O         2.164127         3.222222        -1.961332
 C         2.669439         2.056960        -2.680785
 C         3.280100         0.839051        -2.047941
 C         2.588980         0.308836        -0.727682
 O         2.037558         1.212646         0.220752
 H         0.539097        -0.830348         0.890450
 H        -0.791648         0.276368         0.282034
 H        -0.202740        -1.327075        -0.741964
 H        -0.407851         0.892414        -2.402234
 H        -0.195205         2.097655        -1.131136
 H         0.746284         2.654325        -3.416305
 H         3.299555         2.281532        -3.520452
 H         3.105494         0.098279        -2.888868
 H         4.351459         0.905479        -2.018834
 H         3.218441        -0.475760        -0.311116
