19
Iteration:  4261charge 0 multiplicity 1
 C         0.258761        -0.639863        -0.052226
 C         1.015194         0.505953        -0.786910
 C         0.303343         1.331184        -1.898155
 C         1.316792         2.061064        -2.732900
 O         2.187958         3.089352        -2.223077
 C         2.825058         1.837070        -2.650028
 C         3.448564         1.122433        -1.531261
 C         2.520700         0.554717        -0.547317
 O         1.730005         1.432046         0.143933
 H         0.219189        -1.532684        -0.699755
 H         0.687949        -0.835081         0.942856
 H        -0.763502        -0.256306         0.102708
 H        -0.241905         0.638872        -2.432532
 H        -0.546177         2.017053        -1.422647
 H         1.067946         2.372412        -3.750571
 H         3.474508         2.016949        -3.498883
 H         4.187291         0.473942        -2.130699
 H         4.097864         1.866871        -0.906881
 H         2.902980        -0.224438         0.057130
