19
Iteration:  3495
 C         0.226391        -0.618291        -0.180341
 C         1.087110         0.568626        -0.617443
 C         0.364598         1.451039        -1.739217
 C         1.352615         1.976053        -2.870883
 O         2.146742         3.222744        -2.621487
 C         2.797213         1.935529        -2.653501
 C         3.393716         1.209414        -1.488016
 C         2.538223         0.383934        -0.488159
 O         1.730842         1.211804         0.447341
 H        -0.060464        -1.333410        -1.053980
 H         0.712960        -1.108450         0.687981
 H        -0.832300        -0.289124         0.097682
 H        -0.448625         0.904814        -2.252453
 H        -0.111412         2.310620        -1.237176
 H         0.985252         2.103158        -3.880531
 H         3.371799         1.674160        -3.542899
 H         4.164737         0.606361        -1.972035
 H         4.026482         1.881593        -0.820820
 H         3.067204        -0.427268        -0.178362
