19
Iteration:   922
 C         0.204804        -0.572410        -0.022961
 C         1.031846         0.570662        -0.621020
 C         0.346446         1.515518        -1.663682
 C         1.179801         2.403462        -2.447581
 O         2.362150         3.035802        -2.023451
 C         2.578585         1.892516        -2.784668
 C         3.347322         0.960269        -2.013328
 C         2.480564         0.367556        -0.891014
 O         2.018611         1.227798         0.208597
 H        -0.718166        -0.172181         0.538423
 H        -0.020723        -1.450347        -0.720696
 H         0.755062        -0.985096         0.704315
 H        -0.067735         0.927817        -2.646303
 H        -0.652295         1.888846        -1.225713
 H         0.718339         2.878869        -3.260991
 H         3.142992         2.244249        -3.730931
 H         3.625085         0.089281        -2.618663
 H         4.218070         1.402608        -1.595591
 H         2.924306        -0.543899        -0.453406
