19
Iteration:  1869
 C         0.183771        -0.567343         0.009100
 C         1.079429         0.438280        -0.699271
 C         0.499182         1.320592        -1.850364
 C         1.386846         2.003799        -2.859342
 O         2.065597         3.214861        -2.520463
 C         2.811294         1.925952        -2.679057
 C         3.396269         1.164755        -1.459371
 C         2.528090         0.504733        -0.514706
 O         1.711893         1.304064         0.338928
 H        -0.515081        -0.902138        -0.873199
 H         0.703226        -1.474485         0.357135
 H        -0.513787        -0.092928         0.827638
 H        -0.171775         0.738274        -2.619143
 H        -0.224574         2.093734        -1.397882
 H         0.901396         2.116124        -3.739478
 H         3.445393         1.944227        -3.509446
 H         4.083164         0.391252        -1.897197
 H         4.121215         1.862306        -0.975941
 H         3.145610        -0.316500        -0.023643
