19
Iteration:  3910
 C         0.143345        -0.481037        -0.013646
 C         1.116352         0.512942        -0.678732
 C         0.496782         1.096673        -1.930788
 C         1.384785         2.035762        -2.748899
 O         2.077780         3.152697        -2.184082
 C         2.872968         2.082400        -2.668507
 C         3.487314         0.919466        -1.707399
 C         2.543034         0.614955        -0.519295
 O         1.595700         1.420973         0.237056
 H        -0.451121        -1.189911        -0.654681
 H         0.768451        -1.067452         0.711805
 H        -0.599701         0.130774         0.497956
 H         0.224944         0.247471        -2.713083
 H        -0.412327         1.706263        -1.766080
 H         0.822282         2.389819        -3.657972
 H         3.381712         2.211355        -3.614991
 H         3.491966         0.101766        -2.447840
 H         4.498977         1.199925        -1.523297
 H         2.997602        -0.124652         0.147646
