19
Iteration:  4272charge 0 multiplicity 1
 C         0.277813        -0.558710         0.002651
 C         1.057829         0.485183        -0.770625
 C         0.356651         1.277890        -1.962533
 C         1.364138         2.097032        -2.749222
 O         2.156469         3.161607        -2.221622
 C         2.789613         1.936396        -2.580878
 C         3.480874         1.050173        -1.563428
 C         2.498984         0.460475        -0.624581
 O         1.647726         1.403879         0.157911
 H         0.325674        -1.623349        -0.185542
 H         0.788845        -0.480291         0.983203
 H        -0.751061        -0.287543         0.233780
 H        -0.035529         0.661805        -2.698122
 H        -0.492563         1.954061        -1.500709
 H         0.876405         2.366335        -3.698073
 H         3.342188         1.920792        -3.510337
 H         4.085989         0.146481        -1.971033
 H         4.212069         1.773133        -1.024988
 H         2.901653        -0.306273        -0.018769
