19
Iteration:  4403
 C         0.219933        -0.612384         0.047716
 C         1.022850         0.501678        -0.719527
 C         0.452556         1.246839        -1.924569
 C         1.403571         2.063973        -2.785163
 O         2.127683         3.249282        -2.360591
 C         2.868557         1.977678        -2.680443
 C         3.401840         1.118638        -1.548563
 C         2.469265         0.446741        -0.578359
 O         1.682927         1.338101         0.264561
 H        -0.466677        -1.241463        -0.558376
 H         0.887557        -1.251982         0.607905
 H        -0.398749        -0.142229         0.868398
 H        -0.144013         0.642185        -2.702087
 H        -0.301096         2.048957        -1.656814
 H         0.972117         2.158976        -3.824592
 H         3.575527         2.149465        -3.528544
 H         3.877301         0.229073        -1.962295
 H         4.185874         1.589160        -0.915309
 H         2.813032        -0.341696         0.082624
