19
Iteration:  2232
 C         0.043682        -0.395060        -0.206547
 C         1.111867         0.558477        -0.670446
 C         0.510946         1.302165        -1.786438
 C         1.290590         1.879967        -2.907086
 O         2.002387         2.987468        -2.279080
 C         2.810028         1.957974        -2.653661
 C         3.512114         1.224523        -1.499118
 C         2.595525         0.469180        -0.514366
 O         1.825387         1.305816         0.249558
 H        -0.396394        -0.872981        -1.004102
 H         0.407165        -1.167862         0.577443
 H        -0.745886         0.254138         0.130246
 H        -0.243818         0.703978        -2.214312
 H        -0.159827         2.191506        -1.337860
 H         0.865111         2.082703        -3.823999
 H         3.413025         2.220556        -3.507737
 H         4.250723         0.525207        -1.911843
 H         4.025297         2.104017        -1.013998
 H         2.881897        -0.559900         0.042336
