19
Iteration:  4016charge 0 multiplicity 1
 C         0.136783        -0.511696        -0.092850
 C         1.051771         0.510134        -0.591482
 C         0.485074         1.282063        -1.831523
 C         1.380414         1.971702        -2.827871
 O         2.063346         3.235946        -2.410021
 C         2.815704         1.995714        -2.704757
 C         3.447041         1.106129        -1.587810
 C         2.584239         0.499576        -0.566469
 O         1.724857         1.267049         0.382779
 H         0.097603        -1.449720        -0.797351
 H         0.405008        -0.829007         0.890408
 H        -0.850633        -0.065955         0.015053
 H        -0.059008         0.596203        -2.534757
 H        -0.425298         1.967740        -1.507758
 H         0.792480         1.911324        -3.796555
 H         3.417741         2.153539        -3.632318
 H         4.004539         0.314476        -2.162607
 H         4.270826         1.594157        -1.005778
 H         2.959077        -0.329025         0.015781
