19
Iteration:  3257charge 0 multiplicity 1
 C         0.222164        -0.633497        -0.571930
 C         1.085916         0.631423        -0.553437
 C         0.468513         1.696571        -1.382211
 C         1.282014         1.820979        -2.694023
 O         2.182967         3.019998        -2.986159
 C         2.853261         1.789682        -2.707831
 C         3.371251         1.509184        -1.330120
 C         2.487551         0.570234        -0.532890
 O         1.693822         1.025780         0.613160
 H         0.120050        -0.958997        -1.583796
 H         0.667243        -1.356061         0.029726
 H        -0.761130        -0.462467        -0.147495
 H        -0.547458         1.291526        -1.685183
 H         0.182091         2.549010        -0.876223
 H         0.753902         1.551258        -3.606821
 H         3.154576         1.247211        -3.634571
 H         4.316529         0.982720        -1.508033
 H         3.824200         2.402741        -0.852211
 H         3.049516        -0.452525        -0.290668
