19
Iteration:   647
 C         0.178662        -0.362462         0.089848
 C         1.029420         0.595856        -0.684609
 C         0.281117         1.524568        -1.690662
 C         1.219623         2.142428        -2.712457
 O         2.167057         3.200507        -2.110105
 C         2.745329         2.045995        -2.648991
 C         3.416021         1.028248        -1.822951
 C         2.435190         0.261585        -1.038788
 O         2.102733         0.963074         0.276949
 H        -0.378112         0.140805         1.020866
 H        -0.655522        -0.739171        -0.555761
 H         0.865216        -1.361583         0.436934
 H        -0.522703         0.840211        -2.177664
 H        -0.044873         2.405566        -1.021236
 H         0.787569         2.343864        -3.687922
 H         3.271439         2.184507        -3.583126
 H         4.013101         0.213246        -2.401254
 H         4.082641         1.482159        -1.089555
 H         2.647152        -0.817264        -0.893448
