19
Iteration:    21charge 0 multiplicity 1
 C         0.225448        -0.495909        -0.196472
 C         1.053527         0.743747        -0.617716
 C         0.258195         1.596465        -1.668840
 C         1.178220         2.184031        -2.721156
 O         2.126662         3.036485        -1.976530
 C         2.687742         1.939336        -2.751613
 C         3.315198         0.844977        -1.921342
 C         2.466124         0.332055        -0.767661
 O         2.225467         1.231772         0.348335
 H         0.730090        -1.092240         0.451514
 H        -0.748751        -0.285668         0.227629
 H         0.115013        -1.091418        -1.182346
 H        -0.494295         0.876887        -2.084715
 H        -0.218604         2.407910        -1.217146
 H         0.814585         2.670703        -3.627237
 H         3.340060         2.171792        -3.654968
 H         3.730863        -0.000974        -2.562949
 H         4.208807         1.213928        -1.437791
 H         2.721882        -0.749617        -0.494739
