19
Iteration:  1331
 C         0.033530        -0.547417        -0.226308
 C         1.078727         0.541116        -0.575921
 C         0.430143         1.498151        -1.602567
 C         1.206194         2.160209        -2.657367
 O         2.199182         3.066237        -2.273455
 C         2.689229         1.902136        -2.817080
 C         3.430278         1.064272        -1.807686
 C         2.611256         0.469847        -0.623649
 O         1.951379         1.235722         0.364955
 H        -0.638852        -0.150574         0.439249
 H        -0.398151        -0.837956        -1.087179
 H         0.466289        -1.408524         0.371322
 H        -0.044478         0.752111        -2.265108
 H        -0.399813         2.120898        -1.192138
 H         0.601782         2.391522        -3.625490
 H         3.109344         2.018597        -3.890070
 H         3.789468         0.130491        -2.378182
 H         4.281178         1.622754        -1.328361
 H         3.118383        -0.381051        -0.160016
