19
Iteration:  3258charge 0 multiplicity 1
 C         0.226049        -0.636530        -0.574144
 C         1.089398         0.626044        -0.547559
 C         0.464688         1.697252        -1.385312
 C         1.288478         1.829616        -2.703343
 O         2.179909         3.009253        -2.982847
 C         2.842014         1.794768        -2.708577
 C         3.369648         1.507266        -1.332367
 C         2.498919         0.570391        -0.526474
 O         1.688141         1.029264         0.617617
 H         0.094281        -0.933642        -1.598208
 H         0.669133        -1.358307         0.007838
 H        -0.796546        -0.455653        -0.131193
 H        -0.517630         1.314622        -1.698089
 H         0.226152         2.559637        -0.871941
 H         0.742758         1.554323        -3.612967
 H         3.180707         1.278784        -3.632201
 H         4.325336         0.941971        -1.511181
 H         3.813591         2.401323        -0.861007
 H         3.058887        -0.443792        -0.306108
