19
Iteration:   812charge 0 multiplicity 1
 C         0.083438        -0.387720         0.077822
 C         1.069500         0.469446        -0.724909
 C         0.365046         1.383723        -1.704663
 C         1.238750         2.301126        -2.529517
 O         2.216446         3.155451        -1.955457
 C         2.619371         2.031960        -2.756321
 C         3.426030         0.937838        -2.019168
 C         2.557771         0.270006        -0.883286
 O         2.037722         1.145415         0.189532
 H        -0.626151         0.343985         0.608216
 H        -0.717820        -0.950627        -0.512702
 H         0.657107        -0.976440         0.714516
 H        -0.173445         0.805915        -2.484043
 H        -0.284034         1.977118        -0.983866
 H         0.756325         2.785469        -3.349370
 H         2.943719         2.135397        -3.785245
 H         3.985474         0.302579        -2.737975
 H         4.148999         1.528309        -1.496527
 H         2.973772        -0.699777        -0.617806
