19
Iteration:  4932charge 0 multiplicity 1
 C         0.147526        -0.388483        -0.002935
 C         1.094683         0.598547        -0.711323
 C         0.492600         1.039223        -2.054004
 C         1.318918         2.117299        -2.803321
 O         2.037110         3.062246        -2.010828
 C         2.817031         1.950413        -2.620643
 C         3.436634         1.025975        -1.662405
 C         2.498085         0.477013        -0.602739
 O         1.786096         1.459441         0.188945
 H         0.125414        -1.290634        -0.546948
 H         0.729149        -0.531277         0.941547
 H        -0.890664         0.077395         0.084614
 H         0.363505         0.235661        -2.767698
 H        -0.520685         1.354744        -1.866472
 H         0.791310         2.571729        -3.708643
 H         3.509773         2.216724        -3.457635
 H         3.830380         0.160562        -2.188760
 H         4.242278         1.530841        -1.096339
 H         3.014833        -0.357902        -0.135378
