19
Iteration:  1765charge 0 multiplicity 1
 C         0.124958        -0.468818         0.034598
 C         1.032978         0.482341        -0.622784
 C         0.520375         1.050859        -1.948658
 C         1.384176         2.010305        -2.793792
 O         2.054614         3.172231        -2.200588
 C         2.821191         2.073079        -2.637310
 C         3.433681         1.021692        -1.725349
 C         2.518520         0.518340        -0.563738
 O         1.754970         1.450147         0.234260
 H         0.398960        -1.484572        -0.173727
 H         0.028032        -0.193805         1.166448
 H        -0.827768        -0.255445        -0.378439
 H         0.408452         0.215216        -2.566131
 H        -0.485112         1.524851        -1.869880
 H         0.885391         2.265788        -3.816634
 H         3.415207         2.336745        -3.656250
 H         3.784140         0.227530        -2.427687
 H         4.359472         1.413602        -1.247704
 H         3.082480        -0.105203         0.133911
