19
Iteration:  1896charge 0 multiplicity 1
 C         0.099285        -0.546772        -0.158612
 C         1.021472         0.585937        -0.580406
 C         0.463570         1.314456        -1.801048
 C         1.381817         1.864278        -2.877419
 O         2.045190         3.186367        -2.567755
 C         2.795027         2.027415        -2.647100
 C         3.541678         1.212095        -1.473770
 C         2.503416         0.485291        -0.553355
 O         1.808348         1.266552         0.496781
 H        -0.230139        -1.065103        -1.001194
 H         0.708180        -1.212512         0.617080
 H        -0.774252        -0.232714         0.356561
 H        -0.130513         0.570596        -2.472326
 H        -0.318819         1.999319        -1.593994
 H         0.841275         1.974831        -3.937128
 H         3.379642         1.910148        -3.649784
 H         3.860015         0.414445        -2.138919
 H         4.442437         1.670247        -1.085046
 H         2.926628        -0.432100        -0.240269
