19
Iteration:  4548
 C         0.177376        -0.495124        -0.343925
 C         1.114286         0.602287        -0.683114
 C         0.467645         1.587284        -1.586920
 C         1.306870         1.862680        -2.742133
 O         2.080894         3.045763        -2.703129
 C         2.797109         1.831796        -2.699101
 C         3.407014         1.423102        -1.348479
 C         2.566096         0.410018        -0.608797
 O         1.776590         1.070555         0.482917
 H         0.455351        -1.379755        -0.891453
 H        -0.130781        -0.749077         0.634301
 H        -0.901864        -0.340676        -0.881243
 H        -0.544950         1.308151        -1.826860
 H         0.300939         2.459856        -0.904415
 H         0.826473         1.560947        -3.642305
 H         3.318473         1.747224        -3.712664
 H         4.484309         1.092740        -1.409282
 H         3.391979         2.407279        -0.781520
 H         3.082833        -0.495218        -0.304904
