19
Iteration:  2934
 C         0.161571        -0.357765        -0.016898
 C         1.123712         0.516079        -0.735993
 C         0.485296         1.027939        -2.025611
 C         1.317562         2.101114        -2.716818
 O         1.967799         3.091995        -1.968798
 C         2.744302         1.940971        -2.632307
 C         3.501015         1.039871        -1.628798
 C         2.600530         0.464238        -0.520202
 O         1.795831         1.504981         0.007684
 H        -0.167474        -1.154456        -0.737033
 H         0.416146        -0.660651         0.930453
 H        -0.806498         0.164224         0.088287
 H         0.320592         0.209115        -2.657445
 H        -0.459481         1.379815        -1.777780
 H         0.824516         2.304111        -3.756613
 H         3.403240         2.209197        -3.516299
 H         3.676612         0.149800        -2.240851
 H         4.392465         1.453732        -1.209619
 H         3.009527        -0.239014         0.191519
