19
Iteration:  2914
 C         0.089214        -0.384394         0.051306
 C         1.065142         0.463716        -0.742383
 C         0.493123         1.021653        -2.010200
 C         1.357808         2.052767        -2.762101
 O         1.973805         3.180638        -2.179806
 C         2.798164         2.125918        -2.531475
 C         3.474581         0.995011        -1.693363
 C         2.564831         0.450538        -0.610129
 O         1.852102         1.418482         0.203511
 H        -0.238946        -1.405457        -0.398744
 H         0.466358        -0.459192         1.068008
 H        -0.873963         0.115971         0.115053
 H         0.352817         0.103558        -2.700288
 H        -0.465745         1.431762        -1.802809
 H         0.969154         2.265702        -3.754556
 H         3.428682         2.400053        -3.363835
 H         3.899338         0.255718        -2.320214
 H         4.240338         1.558942        -1.016907
 H         2.928905        -0.398953        -0.011309
