19
Iteration:   382charge 0 multiplicity 1
 C         0.297232        -0.535478        -0.193569
 C         1.066622         0.686386        -0.536551
 C         0.352747         1.523844        -1.623056
 C         1.233311         2.310063        -2.638415
 O         2.284681         3.187008        -2.135602
 C         2.583566         1.904178        -2.825488
 C         3.266378         0.882551        -1.897174
 C         2.445904         0.301620        -0.729439
 O         2.032144         1.174711         0.377204
 H         0.802921        -1.169154         0.507986
 H        -0.651016        -0.318101         0.192355
 H         0.312289        -1.224914        -1.143002
 H        -0.162605         0.699132        -2.284528
 H        -0.422115         2.253369        -1.282867
 H         0.683450         2.634915        -3.461721
 H         2.908336         1.975838        -3.791097
 H         3.452651        -0.009865        -2.548368
 H         4.218621         1.275428        -1.646759
 H         2.887011        -0.626462        -0.454383
