19
Iteration:   429charge 0 multiplicity 1
 C         0.105086        -0.650196        -0.078717
 C         1.074332         0.494238        -0.682388
 C         0.404414         1.586919        -1.407170
 C         1.272696         2.206865        -2.562403
 O         2.275980         3.227971        -2.205888
 C         2.644096         1.940495        -2.773162
 C         3.381822         0.924055        -1.908605
 C         2.522962         0.364835        -0.838026
 O         1.930755         1.213386         0.176338
 H        -0.052887        -0.688171         1.145838
 H        -0.913734        -0.471720        -0.513396
 H         0.514744        -1.670012        -0.254578
 H        -0.623833         1.375452        -1.897454
 H         0.294868         2.459105        -0.744125
 H         0.537513         2.385047        -3.347277
 H         3.023331         2.019523        -3.800468
 H         3.970998         0.207448        -2.494404
 H         4.151370         1.634070        -1.519396
 H         2.972284        -0.570523        -0.485493
