19
Iteration:  4100
 C         0.170647        -0.738186        -0.293837
 C         0.963549         0.547054        -0.573360
 C         0.421310         1.571604        -1.649529
 C         1.394508         1.879596        -2.825493
 O         2.071200         3.184647        -2.730195
 C         2.822386         1.917669        -2.685170
 C         3.497023         1.288154        -1.495161
 C         2.501620         0.527905        -0.435996
 O         1.767743         1.201003         0.504947
 H        -0.105788        -1.249402        -1.178286
 H         0.791255        -1.363849         0.340461
 H        -0.814435        -0.558518         0.304596
 H        -0.563920         1.288573        -2.195988
 H         0.227437         2.466183        -1.144019
 H         1.026352         1.669540        -3.812523
 H         3.455469         1.959291        -3.624397
 H         3.952482         0.467094        -2.017010
 H         4.228917         1.775009        -0.842958
 H         3.158057        -0.397849        -0.112842
