19
Iteration:  4756charge 0 multiplicity 1
 C         0.204317        -0.672021        -0.382606
 C         0.995871         0.578290        -0.585425
 C         0.392950         1.555612        -1.677035
 C         1.275746         2.017012        -2.803063
 O         2.195517         3.088130        -2.666269
 C         2.746086         1.806360        -2.709432
 C         3.465325         1.308725        -1.472115
 C         2.545506         0.495971        -0.450217
 O         1.810255         1.182269         0.561670
 H         0.403102        -1.443115        -1.077727
 H         0.278674        -0.893565         0.706447
 H        -0.936646        -0.420599        -0.431799
 H        -0.429460         0.883029        -2.268161
 H        -0.050156         2.491331        -1.293287
 H         0.723357         1.991823        -3.724732
 H         3.322842         1.740499        -3.702057
 H         4.282796         0.700711        -1.753260
 H         3.950706         2.189658        -1.032592
 H         2.893174        -0.500062        -0.174924
