19
Iteration:  2064charge 0 multiplicity 1
 C         0.141994        -0.412508         0.235060
 C         1.075379         0.450647        -0.782555
 C         0.383166         1.109482        -2.070666
 C         1.382095         2.078679        -2.828852
 O         2.057903         3.115085        -2.168953
 C         2.874920         2.026616        -2.595974
 C         3.494867         1.143419        -1.562307
 C         2.565727         0.431569        -0.670067
 O         1.696009         1.345962         0.130377
 H        -0.554138        -1.207940        -0.127082
 H         0.625518        -0.643123         1.067020
 H        -0.516838         0.418667         0.614013
 H         0.208013         0.305633        -2.786894
 H        -0.625376         1.578211        -1.883179
 H         1.036096         2.422133        -3.891262
 H         3.541985         2.312292        -3.524782
 H         4.130374         0.335144        -1.940439
 H         4.114004         1.753818        -0.882593
 H         2.992992        -0.438769        -0.115692
