19
Iteration:   615
 C         0.090258        -0.436151        -0.005239
 C         1.129339         0.442278        -0.706823
 C         0.392699         1.445053        -1.641890
 C         1.169210         2.363204        -2.535139
 O         2.219334         3.185915        -2.016197
 C         2.674427         1.978411        -2.816103
 C         3.373425         0.837429        -1.963837
 C         2.588364         0.268438        -0.761877
 O         1.969091         1.232622         0.138258
 H        -0.521115         0.152763         0.782498
 H        -0.469843        -0.919840        -0.807174
 H         0.533889        -1.274172         0.588889
 H        -0.310134         0.829069        -2.417052
 H        -0.262422         2.072858        -0.904131
 H         0.632535         2.819810        -3.358385
 H         3.235935         2.175955        -3.670591
 H         3.839915        -0.011781        -2.597204
 H         4.221002         1.369373        -1.496891
 H         3.118805        -0.546340        -0.287155
