19
Iteration:  1161
 C         0.269324        -0.524846         0.143941
 C         1.002159         0.454697        -0.765732
 C         0.388538         1.425240        -1.705259
 C         1.247641         2.311589        -2.687431
 O         2.244894         3.201856        -2.051510
 C         2.766325         2.037156        -2.682900
 C         3.382090         0.832621        -1.878641
 C         2.421224         0.333445        -0.834741
 O         1.856657         1.239090         0.111208
 H         0.852842        -1.487261         0.303716
 H         0.410403        -0.092825         1.184828
 H        -0.691825        -0.688479        -0.017082
 H        -0.470518         0.988201        -2.339369
 H        -0.259619         2.126975        -1.206820
 H         0.702128         2.818917        -3.413133
 H         3.338042         2.316640        -3.598193
 H         3.591228         0.072027        -2.705092
 H         4.316623         1.177566        -1.316651
 H         2.898318        -0.577091        -0.309549
