19
Iteration:  3443charge 0 multiplicity 1
 C         0.321381        -0.654494        -0.467795
 C         1.045698         0.619145        -0.606837
 C         0.503609         1.619481        -1.593439
 C         1.235222         1.887724        -2.851239
 O         2.217037         3.095848        -2.645837
 C         2.682244         1.732483        -2.723355
 C         3.370397         1.277769        -1.429031
 C         2.501006         0.501222        -0.417335
 O         1.736541         1.246854         0.526742
 H         0.083367        -1.003177        -1.504372
 H         0.873100        -1.402877         0.027548
 H        -0.711784        -0.673642         0.043669
 H        -0.638798         1.333829        -1.837999
 H         0.240246         2.501646        -1.132016
 H         0.709758         1.922599        -3.780834
 H         3.244720         1.590895        -3.653312
 H         4.328312         0.840367        -1.533984
 H         3.632429         2.226443        -0.949431
 H         3.103301        -0.473556        -0.092360
