19
Iteration:  2044charge 0 multiplicity 1
 C         0.106657        -0.374463         0.099138
 C         0.991243         0.444727        -0.772177
 C         0.469353         1.045122        -1.979293
 C         1.375769         1.974879        -2.775678
 O         2.052823         3.046755        -2.040391
 C         2.845901         2.012229        -2.639641
 C         3.514379         1.144433        -1.602586
 C         2.500147         0.469019        -0.613173
 O         1.794054         1.490042         0.015857
 H        -0.329359        -1.170862        -0.553816
 H         0.699328        -0.900797         0.859117
 H        -0.755110         0.164358         0.556416
 H        -0.048635         0.427897        -2.602295
 H        -0.320674         1.803051        -1.681078
 H         0.993369         2.322374        -3.723462
 H         3.450146         2.323963        -3.560070
 H         4.237080         0.446422        -2.069576
 H         4.053138         1.882145        -0.964713
 H         2.864437        -0.330802         0.141599
