19
Iteration:  2850
 C         0.208311        -0.584745        -0.207487
 C         1.087345         0.561699        -0.703311
 C         0.369287         1.379168        -1.724026
 C         1.255646         1.984330        -2.718245
 O         2.115200         3.107529        -2.391813
 C         2.790666         1.847513        -2.649520
 C         3.456218         1.155440        -1.526560
 C         2.603413         0.520902        -0.497398
 O         1.750096         1.354199         0.182745
 H        -0.008459        -1.287600        -1.071665
 H         0.715962        -1.272612         0.516189
 H        -0.693851        -0.160384         0.200713
 H        -0.292957         0.615433        -2.315629
 H        -0.353767         2.206124        -1.291154
 H         0.835282         2.088116        -3.639809
 H         3.316580         1.865542        -3.539543
 H         4.315288         0.565597        -1.811521
 H         3.972007         2.013725        -0.938343
 H         3.133311        -0.242491         0.161270
