19
Iteration:  1298charge 0 multiplicity 1
 C         0.292934        -0.573424        -0.087162
 C         1.047400         0.596836        -0.677252
 C         0.373001         1.563738        -1.654161
 C         1.232565         2.195418        -2.685829
 O         2.239522         3.118439        -2.168915
 C         2.666016         1.912563        -2.720863
 C         3.346424         0.932554        -1.798562
 C         2.508428         0.371737        -0.675664
 O         1.863028         1.261578         0.214641
 H        -0.726222        -0.546861        -0.215313
 H         0.598908        -1.479426        -0.474126
 H         0.627293        -0.639157         0.975695
 H        -0.333440         1.007441        -2.230136
 H        -0.304160         2.287490        -1.159685
 H         0.780047         2.482418        -3.707240
 H         3.187151         2.040871        -3.730094
 H         3.750489         0.054429        -2.415302
 H         4.297137         1.378694        -1.396875
 H         2.920054        -0.507466        -0.168390
