19
Iteration:  2338charge 0 multiplicity 1
 C         0.217983        -0.523513        -0.151547
 C         1.112534         0.622066        -0.700991
 C         0.385906         1.241269        -1.900499
 C         1.305904         1.975564        -2.825591
 O         2.114617         3.013527        -2.023388
 C         2.732362         1.869103        -2.639633
 C         3.514221         0.935681        -1.703242
 C         2.553700         0.542537        -0.498582
 O         1.715390         1.626122         0.162903
 H         0.612830        -1.365532        -0.842924
 H         0.359611        -0.847223         0.871607
 H        -0.875954        -0.175004        -0.228312
 H         0.070198         0.329838        -2.538948
 H        -0.480498         1.654576        -1.587459
 H         0.844764         2.519712        -3.703682
 H         3.282722         2.196251        -3.551450
 H         4.136297         0.062765        -1.961255
 H         4.201970         1.665721        -1.288488
 H         2.731234        -0.071554         0.257684
