19
Iteration:  4561charge 0 multiplicity 1
 C         0.159191        -0.543230        -0.393432
 C         1.088634         0.564082        -0.638057
 C         0.493731         1.623503        -1.550370
 C         1.313845         1.878588        -2.833409
 O         2.015104         3.144159        -2.789144
 C         2.772323         1.796688        -2.649439
 C         3.442382         1.386223        -1.366001
 C         2.585663         0.439522        -0.525278
 O         1.749311         1.033752         0.518282
 H         0.578103        -1.422505        -0.828995
 H         0.409802        -0.620752         0.680673
 H        -0.876342        -0.292177        -0.710623
 H        -0.420491         1.323965        -1.873496
 H         0.534014         2.686589        -1.032187
 H         0.915671         1.758620        -3.806825
 H         3.436298         1.524784        -3.453557
 H         4.496185         0.933686        -1.601579
 H         3.624074         2.256013        -0.642840
 H         2.831908        -0.600852        -0.319998
