19
Iteration:   958
 C         0.238881        -0.647157        -0.091850
 C         1.080805         0.555282        -0.662891
 C         0.423464         1.666671        -1.478193
 C         1.236344         2.301048        -2.621948
 O         2.221400         3.184178        -2.167048
 C         2.672065         2.017519        -2.717326
 C         3.261425         0.831897        -1.926721
 C         2.507927         0.266171        -0.829935
 O         1.949891         1.185708         0.229559
 H        -0.853588        -0.486825        -0.110453
 H         0.410871        -1.560945        -0.668309
 H         0.688149        -0.725915         0.963681
 H        -0.622577         1.311111        -2.038569
 H         0.302325         2.566923        -0.732100
 H         0.588827         2.519639        -3.505581
 H         3.181635         2.231996        -3.608420
 H         3.398581         0.052037        -2.683027
 H         4.278181         1.069731        -1.603289
 H         2.880147        -0.643288        -0.451859
