19
Iteration:  4871charge 0 multiplicity 1
 C         0.030361        -0.359310         0.074819
 C         1.044927         0.441868        -0.694947
 C         0.519905         1.065667        -1.992531
 C         1.424866         2.001007        -2.801145
 O         2.000715         3.141078        -2.065877
 C         2.857300         2.120882        -2.637875
 C         3.470215         1.084018        -1.665633
 C         2.572963         0.419325        -0.639236
 O         1.761743         1.406658         0.125948
 H        -0.477538        -1.263594        -0.445780
 H         0.531646        -0.923940         0.920790
 H        -0.729800         0.237345         0.542154
 H         0.228660         0.220222        -2.697535
 H        -0.494633         1.614037        -1.638349
 H         0.999949         2.393021        -3.757455
 H         3.439456         2.421360        -3.467725
 H         3.940613         0.286091        -2.397017
 H         4.350596         1.502999        -1.125615
 H         2.999564        -0.378738        -0.002780
