19
Iteration:  1351
 C         0.092476        -0.498915        -0.111655
 C         1.102770         0.527681        -0.622754
 C         0.418349         1.411080        -1.690246
 C         1.254974         2.136099        -2.693023
 O         2.167247         3.269038        -2.348859
 C         2.687702         1.884170        -2.745649
 C         3.417711         1.044032        -1.714496
 C         2.562832         0.347001        -0.685110
 O         1.932323         1.203000         0.354319
 H        -0.264109        -0.314166         0.919160
 H        -0.827749        -0.519902        -0.711128
 H         0.565375        -1.527519        -0.070518
 H        -0.484556         0.906133        -2.217644
 H        -0.112285         2.209967        -1.150109
 H         0.780717         2.350326        -3.652169
 H         3.230668         1.983240        -3.789341
 H         3.970408         0.216148        -2.243290
 H         4.182584         1.688652        -1.187800
 H         2.968829        -0.608268        -0.215128
