19
Iteration:  1389charge 0 multiplicity 1
 C         0.234704        -0.584824         0.101139
 C         0.946167         0.568330        -0.635368
 C         0.320062         1.498474        -1.789711
 C         1.360041         2.071337        -2.783272
 O         2.139873         3.199893        -2.276533
 C         2.777229         1.961409        -2.688160
 C         3.463419         1.079586        -1.637071
 C         2.451532         0.308414        -0.835639
 O         1.873012         1.194500         0.228340
 H         0.798716        -0.670656         1.066558
 H        -0.733837        -0.252868         0.606152
 H         0.129859        -1.369096        -0.594220
 H        -0.528263         1.088323        -2.239007
 H         0.035480         2.482293        -1.285228
 H         0.914903         2.163773        -3.818440
 H         3.319547         2.077829        -3.584370
 H         4.193496         0.418550        -2.184562
 H         4.140318         1.602194        -0.937087
 H         2.920958        -0.537860        -0.434751
