19
Iteration:  3205charge 0 multiplicity 1
 C         0.199479        -0.623332        -0.357189
 C         1.067246         0.532829        -0.675472
 C         0.614889         1.653032        -1.532948
 C         1.316109         1.863257        -2.820066
 O         2.165728         3.155026        -2.879338
 C         2.768646         1.778167        -2.740094
 C         3.263426         1.474678        -1.330590
 C         2.540629         0.468324        -0.488627
 O         1.705919         0.976420         0.592280
 H         0.321782        -1.495695        -1.043957
 H         0.508709        -0.983683         0.591895
 H        -0.944142        -0.247931        -0.238472
 H        -0.418752         1.812797        -1.665100
 H         0.901220         2.519307        -0.946218
 H         0.795480         1.692516        -3.783185
 H         3.213362         1.564237        -3.717973
 H         4.413316         1.463512        -1.371876
 H         3.107030         2.484104        -0.951921
 H         2.946058        -0.543069        -0.336616
