19
Iteration:  4381
 C         0.170420        -0.491320         0.138206
 C         0.975546         0.496789        -0.684621
 C         0.442955         1.145292        -1.916184
 C         1.420355         2.013640        -2.825525
 O         2.109652         3.149339        -2.170204
 C         2.910668         2.097122        -2.599911
 C         3.499837         1.118954        -1.658459
 C         2.446025         0.430127        -0.706051
 O         1.667061         1.387999         0.143342
 H        -0.453477        -1.125406        -0.524090
 H         0.878625        -1.088478         0.712382
 H        -0.427017         0.021435         0.917613
 H         0.130980         0.397577        -2.729802
 H        -0.597176         1.626290        -1.741885
 H         1.119565         2.224516        -3.900635
 H         3.494691         2.213820        -3.537947
 H         4.014835         0.297336        -2.144338
 H         4.235868         1.607777        -0.962848
 H         2.817530        -0.343638        -0.017160
