19
Iteration:   934charge 0 multiplicity 1
 C         0.279304        -0.624556        -0.020697
 C         1.018407         0.578606        -0.725231
 C         0.250964         1.566780        -1.605879
 C         1.248125         2.352220        -2.529196
 O         2.368770         3.141781        -2.017447
 C         2.597692         1.921285        -2.819636
 C         3.324680         0.865621        -1.961486
 C         2.481009         0.402362        -0.840992
 O         2.006872         1.191071         0.237390
 H        -0.797029        -0.336625         0.234336
 H         0.176841        -1.552918        -0.666400
 H         0.825036        -0.809978         0.825973
 H        -0.406197         0.851530        -2.318650
 H        -0.399724         2.332536        -1.036620
 H         0.723153         2.821140        -3.329968
 H         2.851517         2.031372        -3.900814
 H         3.677601        -0.002674        -2.524818
 H         4.200514         1.344668        -1.584390
 H         2.787312        -0.601394        -0.559137
