19
Iteration:  2455
 C         0.193516        -0.619171        -0.240392
 C         0.977552         0.592253        -0.704095
 C         0.340351         1.359697        -1.807374
 C         1.346636         1.868570        -2.844344
 O         2.104890         3.038244        -2.317065
 C         2.813396         1.826579        -2.673850
 C         3.499246         1.191710        -1.523430
 C         2.500896         0.589947        -0.528463
 O         1.833544         1.434002         0.372457
 H        -0.532883        -0.920900        -1.050811
 H         0.768477        -1.440790        -0.057496
 H        -0.230845        -0.307367         0.700544
 H        -0.531484         0.876939        -2.258799
 H        -0.165646         2.291183        -1.336520
 H         0.895887         2.028795        -3.889022
 H         3.412445         1.995618        -3.568030
 H         4.252105         0.451399        -1.897471
 H         3.984981         2.105346        -1.150721
 H         3.108573        -0.203628         0.101009
