19
Iteration:   250
 C         0.136542        -0.438997        -0.021071
 C         1.095594         0.506293        -0.707373
 C         0.396743         1.437546        -1.631023
 C         1.207160         2.245659        -2.653898
 O         2.227384         3.166637        -1.953231
 C         2.695264         2.059904        -2.694136
 C         3.298818         0.823492        -2.017196
 C         2.674453         0.361287        -0.719399
 O         1.952213         1.208988         0.111992
 H         0.506121        -0.695900         0.945658
 H        -0.881178         0.078983         0.152278
 H        -0.189708        -1.474341        -0.665504
 H        -0.404689         0.774415        -2.152342
 H        -0.115019         2.139277        -0.946095
 H         0.718934         2.619764        -3.501212
 H         3.020274         2.383031        -3.648222
 H         3.027359        -0.069013        -2.665307
 H         4.366477         0.916415        -1.970696
 H         3.075176        -0.473968        -0.141166
