19
Iteration:  2677
 C         0.244408        -0.577686        -0.058671
 C         1.001283         0.535091        -0.712431
 C         0.377014         1.264487        -1.823932
 C         1.398190         1.953456        -2.780364
 O         2.059648         3.113538        -2.286588
 C         2.903556         2.005898        -2.647204
 C         3.486216         1.076209        -1.613270
 C         2.482689         0.552110        -0.573743
 O         1.704683         1.439250         0.217182
 H        -0.437773        -1.018627        -0.760762
 H         0.855914        -1.327605         0.520803
 H        -0.416431        -0.057116         0.626232
 H        -0.039553         0.458836        -2.353960
 H        -0.405159         1.913308        -1.414146
 H         0.903632         2.060830        -3.808450
 H         3.520217         2.181222        -3.514296
 H         3.902170         0.162834        -2.159056
 H         4.310031         1.428341        -1.052386
 H         2.889607        -0.203684         0.151086
