19
Iteration:  2199charge 0 multiplicity 1
 C         0.177695        -0.594300        -0.086596
 C         1.001900         0.570014        -0.650665
 C         0.422997         1.332834        -1.821266
 C         1.365581         2.037889        -2.837712
 O         2.125024         3.204477        -2.499264
 C         2.801430         1.952894        -2.673056
 C         3.497841         1.133886        -1.514801
 C         2.505075         0.502095        -0.510900
 O         1.734913         1.245616         0.370343
 H         0.085105        -1.409936        -0.745569
 H         0.505696        -0.933212         0.916129
 H        -0.796339        -0.214767         0.121656
 H        -0.110158         0.611236        -2.385917
 H        -0.319364         2.091502        -1.384489
 H         0.994278         2.084197        -3.809663
 H         3.387644         1.963045        -3.582554
 H         3.990881         0.307920        -2.044635
 H         4.343168         1.750388        -1.114826
 H         2.924091        -0.520309        -0.156181
