19
Iteration:  4608charge 0 multiplicity 1
 C         0.265482        -0.732959        -0.383394
 C         1.024133         0.613919        -0.599509
 C         0.498078         1.665011        -1.487814
 C         1.304001         1.954458        -2.735058
 O         2.204341         3.122955        -2.808724
 C         2.774558         1.761525        -2.789886
 C         3.420332         1.385442        -1.414936
 C         2.483086         0.501328        -0.551385
 O         1.646154         1.117182         0.553257
 H         0.004971        -1.183449        -1.395673
 H         1.005985        -1.436456         0.081824
 H        -0.573651        -0.498293         0.109741
 H        -0.451650         1.268594        -1.948304
 H         0.447509         2.574740        -0.843403
 H         0.755307         1.665029        -3.709659
 H         3.250786         1.471622        -3.689388
 H         4.337491         0.766697        -1.342000
 H         3.600761         2.341057        -0.923245
 H         2.811313        -0.449824        -0.102240
