19
Iteration:   910charge 0 multiplicity 1
 C         0.181981        -0.484004         0.014096
 C         1.065252         0.565291        -0.638456
 C         0.359046         1.362566        -1.672282
 C         1.214707         2.405178        -2.493202
 O         2.325516         3.092453        -1.940359
 C         2.597660         1.991581        -2.849566
 C         3.318645         0.893116        -2.003283
 C         2.522474         0.301799        -0.838552
 O         2.007864         1.243173         0.163555
 H        -0.695692        -0.021238         0.537323
 H        -0.324305        -0.958168        -0.870982
 H         0.682388        -1.172228         0.579912
 H         0.012212         0.501421        -2.373908
 H        -0.520927         1.916882        -1.266011
 H         0.608407         3.031073        -3.100035
 H         2.959690         2.154027        -3.950768
 H         3.709235         0.130963        -2.691065
 H         4.198716         1.404028        -1.640830
 H         2.970130        -0.633889        -0.396373
