19
Iteration:  1369
 C         0.238024        -0.541551         0.039018
 C         0.990426         0.522519        -0.782048
 C         0.371144         1.532856        -1.669434
 C         1.294399         2.127782        -2.774295
 O         2.128213         3.190106        -2.377776
 C         2.812115         2.003883        -2.682053
 C         3.407594         1.048155        -1.631058
 C         2.453880         0.320514        -0.706326
 O         1.926755         1.150010         0.282582
 H         0.339368        -0.248849         1.156846
 H        -0.961936        -0.441094         0.024746
 H         0.523290        -1.508024        -0.266903
 H        -0.382318         1.000627        -2.261494
 H        -0.284311         2.203887        -1.104288
 H         0.838051         2.278165        -3.730461
 H         3.327091         1.978351        -3.585600
 H         4.039280         0.397113        -2.187539
 H         4.150036         1.577259        -1.043867
 H         2.762681        -0.701216        -0.397768
