19
Iteration:  3629charge 0 multiplicity 1
 C         0.153266        -0.569642         0.040189
 C         1.042659         0.537745        -0.639520
 C         0.552169         1.169423        -1.991772
 C         1.342956         2.154360        -2.836400
 O         2.122275         3.109190        -2.150985
 C         2.830182         1.989316        -2.657444
 C         3.412567         0.962853        -1.676523
 C         2.538509         0.514275        -0.513614
 O         1.661762         1.478827         0.164090
 H        -0.033094        -1.496403        -0.557450
 H         0.708781        -0.819829         0.986329
 H        -0.854571        -0.080620         0.339420
 H         0.292383         0.348684        -2.681557
 H        -0.583292         1.572272        -1.805724
 H         0.757346         2.417044        -3.702333
 H         3.600000         2.376044        -3.335369
 H         3.677294         0.123911        -2.336256
 H         4.389381         1.331454        -1.289629
 H         3.066450        -0.122889         0.088033
