19
Iteration:  4828
 C         0.239808        -0.513777        -0.178772
 C         1.039525         0.640066        -0.674018
 C         0.422563         1.254161        -1.863052
 C         1.312687         2.036441        -2.748598
 O         2.173568         3.128753        -2.298654
 C         2.784665         1.872838        -2.704059
 C         3.425801         1.145371        -1.538560
 C         2.516667         0.465724        -0.597913
 O         1.709282         1.359615         0.321618
 H        -0.187434        -1.166777        -1.012103
 H         0.846647        -1.115843         0.483812
 H        -0.511246        -0.391554         0.547955
 H         0.009031         0.472223        -2.377069
 H        -0.315353         1.928706        -1.385452
 H         0.720857         2.144623        -3.722544
 H         3.299059         1.905607        -3.647177
 H         4.156594         0.358401        -1.958220
 H         4.140594         1.806108        -0.995444
 H         2.849569        -0.408034        -0.028628
