19
Iteration:  2660charge 0 multiplicity 1
 C         0.195392        -0.554159        -0.017470
 C         1.052014         0.495581        -0.739722
 C         0.373051         1.176506        -1.952055
 C         1.302266         1.997837        -2.795746
 O         2.133702         3.037917        -2.079177
 C         2.817205         1.897047        -2.659905
 C         3.503072         1.057810        -1.622656
 C         2.627144         0.629083        -0.553325
 O         1.647720         1.552815         0.160680
 H        -0.383868        -1.146696        -0.785905
 H         0.879852        -1.291466         0.426724
 H        -0.492039        -0.128818         0.751919
 H        -0.385165         0.556247        -2.638471
 H        -0.130451         2.045825        -1.474805
 H         1.024133         2.365126        -3.762227
 H         3.345960         2.190931        -3.640850
 H         3.831637         0.196971        -2.180835
 H         4.403701         1.707344        -1.350267
 H         2.994201        -0.190310         0.058496
