19
Iteration:  2954
 C         0.200519        -0.449801        -0.011277
 C         1.105186         0.538148        -0.744046
 C         0.439254         1.095481        -2.034624
 C         1.332826         2.027297        -2.811207
 O         2.084998         2.949181        -1.908407
 C         2.787018         1.976780        -2.621507
 C         3.474149         0.989169        -1.735889
 C         2.535797         0.599480        -0.573477
 O         1.691181         1.589498         0.124467
 H        -0.178918        -1.217108        -0.681534
 H         0.808287        -0.834706         0.763472
 H        -0.698078         0.004135         0.513383
 H         0.197947         0.276957        -2.687982
 H        -0.608051         1.525413        -1.785074
 H         0.714200         2.503031        -3.703479
 H         3.560919         2.363397        -3.415316
 H         4.010822         0.082971        -2.243272
 H         4.236354         1.560484        -1.290571
 H         3.072828        -0.048921         0.076018
