19
Iteration:  1650
 C         0.242927        -0.598849        -0.169599
 C         1.093328         0.582859        -0.672990
 C         0.361483         1.320382        -1.859419
 C         1.312325         2.149660        -2.740019
 O         2.133050         3.171936        -2.312889
 C         2.712964         1.775721        -2.732071
 C         3.426459         1.072403        -1.667499
 C         2.586599         0.534784        -0.491055
 O         1.752017         1.384957         0.414718
 H        -0.160415        -0.394164         0.937849
 H        -0.602405        -0.804175        -0.754782
 H         0.889287        -1.601694        -0.197472
 H        -0.015079         0.516302        -2.568279
 H        -0.424393         1.869633        -1.486541
 H         0.876181         2.399710        -3.798872
 H         3.277674         1.766387        -3.732117
 H         3.814151         0.147989        -2.090399
 H         4.327060         1.619161        -1.376855
 H         3.058183        -0.312413         0.050583
