19
Iteration:  2896
 C         0.108120        -0.413375         0.129291
 C         1.016084         0.540373        -0.639263
 C         0.520433         1.170096        -1.993192
 C         1.432140         1.967507        -2.923505
 O         1.946833         3.202635        -2.192457
 C         2.864869         2.093685        -2.664570
 C         3.402624         1.160921        -1.587204
 C         2.542744         0.376099        -0.654065
 O         1.801539         1.261699         0.260517
 H         0.128987        -1.362462        -0.360558
 H         0.589408        -0.692224         1.188857
 H        -0.889496         0.014392         0.213534
 H         0.278391         0.288187        -2.682136
 H        -0.508304         1.788217        -1.856175
 H         1.087107         2.229915        -3.894356
 H         3.517282         2.401143        -3.451321
 H         3.777279         0.315228        -2.290273
 H         4.398386         1.519557        -1.196225
 H         3.032516        -0.521245        -0.153933
