19
Iteration:  1868charge 0 multiplicity 1
 C         0.184498        -0.574785         0.012974
 C         1.073637         0.434445        -0.700626
 C         0.495728         1.317192        -1.856348
 C         1.381416         2.002359        -2.866405
 O         2.071559         3.212184        -2.508543
 C         2.804168         1.920013        -2.675160
 C         3.401307         1.175297        -1.457619
 C         2.526843         0.509411        -0.515718
 O         1.713625         1.307619         0.331428
 H        -0.523663        -0.922528        -0.859560
 H         0.695726        -1.433862         0.329285
 H        -0.485804        -0.063943         0.832943
 H        -0.141817         0.780270        -2.602581
 H        -0.207308         2.106227        -1.385593
 H         0.883779         2.129192        -3.748612
 H         3.464619         1.905047        -3.538435
 H         4.093508         0.399629        -1.900582
 H         4.138075         1.858433        -0.967862
 H         3.141496        -0.331099        -0.010141
