19
Iteration:   539charge 0 multiplicity 1
 C         0.275806        -0.490616         0.014829
 C         0.997477         0.518472        -0.755210
 C         0.302687         1.501621        -1.640671
 C         1.252813         2.316251        -2.525744
 O         2.266590         3.125328        -1.947089
 C         2.704803         2.002835        -2.715444
 C         3.319380         0.810839        -2.003398
 C         2.468605         0.352518        -0.800721
 O         1.996114         1.228725         0.080613
 H        -0.856447        -0.271531        -0.021772
 H         0.421303        -1.518145        -0.347045
 H         0.619284        -0.476658         0.961811
 H        -0.666210         1.042944        -2.107861
 H        -0.407699         2.119657        -1.049961
 H         0.814147         2.830769        -3.389604
 H         3.228321         2.151799        -3.629242
 H         3.451204        -0.052758        -2.686176
 H         4.386960         0.989259        -1.814362
 H         2.994383        -0.473672        -0.319183
