19
Iteration:  1532
 C         0.079691        -0.431971         0.042465
 C         1.073993         0.526501        -0.660126
 C         0.367137         1.193303        -1.870255
 C         1.306295         2.091036        -2.724589
 O         2.095364         3.088962        -2.096600
 C         2.803471         2.012642        -2.721377
 C         3.485944         1.080347        -1.731766
 C         2.559250         0.456240        -0.700849
 O         1.877786         1.334710         0.186605
 H        -0.699405        -0.580309        -0.766274
 H         0.419259        -1.481904         0.403215
 H        -0.365664        -0.015791         0.876011
 H        -0.022760         0.430841        -2.525719
 H        -0.528363         1.783772        -1.378369
 H         0.803616         2.450437        -3.683811
 H         3.421810         2.216225        -3.692486
 H         4.037451         0.230564        -2.241678
 H         4.313439         1.608838        -1.179323
 H         2.981278        -0.407273        -0.237461
