19
Iteration:   117charge 0 multiplicity 1
 C         0.181485        -0.436312        -0.054819
 C         1.086302         0.635131        -0.683597
 C         0.350592         1.617500        -1.576841
 C         1.184401         2.247078        -2.703761
 O         2.196642         3.182674        -2.296396
 C         2.643550         1.937306        -2.725875
 C         3.361904         1.066468        -1.698836
 C         2.478209         0.237724        -0.874621
 O         2.090810         0.918758         0.330989
 H         0.819543        -1.232646         0.283809
 H        -0.493773        -0.129320         0.796385
 H        -0.617114        -0.793337        -0.845622
 H        -0.501656         1.023108        -2.056274
 H        -0.115531         2.385761        -0.930996
 H         0.719726         2.504930        -3.665915
 H         3.225671         1.816576        -3.664786
 H         4.165176         0.394461        -2.162162
 H         3.947084         1.701801        -1.024720
 H         2.861896        -0.810853        -0.849774
