19
Iteration:  3226
 C         0.213246        -0.704839        -0.382775
 C         1.065463         0.606469        -0.616657
 C         0.473980         1.813261        -1.547573
 C         1.229655         1.967974        -2.874052
 O         2.172313         2.988023        -2.901096
 C         2.817037         1.754856        -2.648970
 C         3.291675         1.539992        -1.236807
 C         2.553593         0.457047        -0.577389
 O         1.798315         0.991719         0.562205
 H         0.430707        -1.428433        -1.186823
 H         0.484032        -1.235961         0.477480
 H        -0.955473        -0.461466        -0.329282
 H        -0.571595         1.574877        -1.625666
 H         0.526648         2.679046        -0.962803
 H         0.801449         1.713615        -3.858046
 H         3.393051         1.244754        -3.485042
 H         4.396230         1.212980        -1.372984
 H         3.264645         2.511956        -0.686530
 H         3.001956        -0.566754        -0.335015
