19
Iteration:  1203
 C         0.094620        -0.295313        -0.004484
 C         1.139545         0.608589        -0.672350
 C         0.454089         1.294701        -1.794158
 C         1.185705         2.254050        -2.655043
 O         2.052954         3.083815        -1.942607
 C         2.716286         2.052622        -2.649797
 C         3.402430         0.880907        -1.936378
 C         2.472166         0.259312        -0.839916
 O         2.124446         1.252236         0.199401
 H         0.283216        -1.340015        -0.388241
 H         0.175043        -0.287734         1.139480
 H        -0.954737         0.104530        -0.244482
 H        -0.153708         0.460380        -2.384053
 H        -0.475295         1.719597        -1.286944
 H         0.725392         2.597847        -3.590678
 H         3.265316         2.409993        -3.448487
 H         3.577348         0.062950        -2.587941
 H         4.393725         1.105839        -1.568704
 H         2.795790        -0.717756        -0.501383
