19
Iteration:  2370
 C         0.215021        -0.435884        -0.018506
 C         1.082693         0.543979        -0.733302
 C         0.369212         1.248418        -1.924907
 C         1.403665         1.909758        -2.814848
 O         2.058744         3.129280        -2.226729
 C         2.828677         1.986152        -2.626440
 C         3.435438         1.108651        -1.599277
 C         2.498625         0.469192        -0.585155
 O         1.765755         1.390681         0.264260
 H         0.125530        -1.438778        -0.609764
 H         0.506318        -0.664880         0.983104
 H        -0.881764        -0.121036         0.003929
 H        -0.104946         0.408873        -2.564840
 H        -0.348034         1.893568        -1.512182
 H         1.003583         2.175232        -3.865839
 H         3.494519         2.113463        -3.511727
 H         3.941956         0.241654        -2.073196
 H         4.265406         1.661483        -1.165031
 H         2.840285        -0.396814        -0.040792
