19
Iteration:  2654
 C         0.221852        -0.575182        -0.012169
 C         1.057312         0.545391        -0.738453
 C         0.408010         1.191666        -2.006518
 C         1.329624         2.024194        -2.781476
 O         2.138031         3.006604        -2.027831
 C         2.744983         1.874166        -2.679595
 C         3.499076         1.079073        -1.666576
 C         2.602383         0.624842        -0.515671
 O         1.653953         1.530957         0.113353
 H        -0.473039        -1.081382        -0.752599
 H         0.843018        -1.257416         0.560791
 H        -0.485177        -0.058806         0.660657
 H        -0.198981         0.556214        -2.506829
 H        -0.250751         1.977232        -1.525173
 H         0.846837         2.426011        -3.717193
 H         3.340700         2.043569        -3.530571
 H         3.974100         0.157550        -2.130754
 H         4.361559         1.640520        -1.318456
 H         3.044333        -0.022265         0.310057
