19
Iteration:  1064
 C         0.157090        -0.601042        -0.042782
 C         1.002936         0.511349        -0.668109
 C         0.376800         1.663342        -1.517854
 C         1.313651         2.192664        -2.624236
 O         2.102212         3.288604        -2.348113
 C         2.768922         2.002722        -2.763111
 C         3.402300         0.978740        -1.805425
 C         2.469296         0.261012        -0.811623
 O         1.999440         1.045743         0.309484
 H         0.259286        -0.492378         1.139551
 H        -0.989887        -0.637318        -0.313023
 H         0.552470        -1.521851        -0.301478
 H        -0.549794         1.593913        -1.894583
 H         0.250500         2.423243        -0.810089
 H         0.781511         2.387196        -3.535993
 H         3.131277         1.964079        -3.913242
 H         3.793128         0.253231        -2.590537
 H         4.293308         1.442346        -1.304892
 H         3.001000        -0.720644        -0.448877
