19
Iteration:  1194charge 0 multiplicity 1
 C         0.123560        -0.360412         0.035058
 C         1.022974         0.588945        -0.682227
 C         0.378283         1.350487        -1.776577
 C         1.266030         2.185553        -2.678144
 O         2.047169         3.162577        -1.934054
 C         2.736219         2.072104        -2.655256
 C         3.391291         0.806104        -1.945677
 C         2.503898         0.318872        -0.847703
 O         2.122307         1.231872         0.163376
 H         0.281702        -1.457644        -0.189108
 H         0.283557        -0.129496         1.138045
 H        -0.850087        -0.207041        -0.149401
 H        -0.042817         0.512314        -2.455324
 H        -0.362480         2.034765        -1.388269
 H         0.743030         2.583428        -3.480277
 H         3.335314         2.490104        -3.470916
 H         3.666731         0.083082        -2.739631
 H         4.344107         1.016316        -1.380196
 H         2.866261        -0.626399        -0.329358
