19
Iteration:  3810
 C         0.164778        -0.623538        -0.229476
 C         1.076260         0.507883        -0.556037
 C         0.476514         1.419810        -1.669772
 C         1.343914         1.995278        -2.777153
 O         2.139514         3.243026        -2.731638
 C         2.827336         1.933248        -2.715753
 C         3.363928         1.194176        -1.460873
 C         2.498419         0.407932        -0.490055
 O         1.755596         1.253240         0.470977
 H         0.207967        -1.353570        -1.152587
 H         0.340192        -1.175454         0.634878
 H        -0.858569        -0.265402        -0.205655
 H        -0.353760         0.760200        -2.209993
 H         0.116530         2.291422        -1.024974
 H         0.949550         1.934498        -3.844481
 H         3.187675         1.942766        -3.688315
 H         4.079350         0.484982        -1.913500
 H         3.917510         1.958058        -0.952251
 H         3.114868        -0.382531        -0.072093
