19
Iteration:  1417charge 0 multiplicity 1
 C         0.161437        -0.488352        -0.085832
 C         1.076550         0.529749        -0.683256
 C         0.387109         1.360213        -1.724288
 C         1.265444         2.117238        -2.716082
 O         2.152367         3.144625        -2.211614
 C         2.721753         1.883063        -2.743286
 C         3.402548         1.039935        -1.679307
 C         2.585834         0.451360        -0.660141
 O         1.867938         1.281670         0.241318
 H         0.607692        -1.280934         0.461069
 H        -0.306279         0.072745         0.712252
 H        -0.607366        -0.772646        -0.916881
 H        -0.299912         0.653404        -2.351642
 H        -0.341038         2.046749        -1.311048
 H         0.740658         2.381192        -3.648532
 H         3.440400         2.189496        -3.623498
 H         3.900468         0.207392        -2.210392
 H         4.275058         1.580843        -1.282640
 H         3.097440        -0.468697        -0.182827
