19
Iteration:  3261
 C         0.230061        -0.637069        -0.579035
 C         1.085806         0.605836        -0.536999
 C         0.458489         1.696034        -1.405853
 C         1.310457         1.860843        -2.731885
 O         2.167304         2.978944        -2.971040
 C         2.796318         1.803595        -2.712729
 C         3.377039         1.497979        -1.341956
 C         2.544427         0.565102        -0.502069
 O         1.676034         1.040867         0.635883
 H         0.018764        -0.879785        -1.659889
 H         0.724196        -1.468066        -0.004385
 H        -0.835551        -0.436716        -0.111006
 H        -0.469764         1.377760        -1.754434
 H         0.368274         2.681324        -0.814729
 H         0.726842         1.560479        -3.626103
 H         3.291817         1.381258        -3.595217
 H         4.311001         0.842064        -1.513374
 H         3.745006         2.406051        -0.866966
 H         3.029467        -0.350048        -0.356059
