19
Iteration:  4045
 C         0.218116        -0.677635        -0.237105
 C         1.014476         0.543980        -0.618576
 C         0.345924         1.402658        -1.781343
 C         1.274600         2.065714        -2.775579
 O         2.217127         3.106619        -2.482609
 C         2.752686         1.765439        -2.714716
 C         3.425286         1.254860        -1.466648
 C         2.529464         0.554489        -0.560275
 O         1.848869         1.336756         0.411145
 H        -0.121844        -1.196393        -1.060884
 H         0.714630        -1.273212         0.521306
 H        -0.767124        -0.342902         0.192836
 H        -0.199927         0.707875        -2.533101
 H        -0.416512         1.980461        -1.427870
 H         0.784488         2.240485        -3.728843
 H         3.235641         1.808092        -3.719639
 H         4.241902         0.602649        -1.717899
 H         3.840185         2.051107        -0.824130
 H         2.948516        -0.433949        -0.093881
