19
Iteration:  2595
 C         0.107223        -0.471315         0.116832
 C         1.079074         0.518755        -0.688650
 C         0.544106         1.118451        -1.966903
 C         1.348021         2.096957        -2.843000
 O         1.996958         3.158364        -2.215254
 C         2.915494         2.088450        -2.609738
 C         3.396212         0.994970        -1.688547
 C         2.515400         0.434638        -0.597863
 O         1.762595         1.419044         0.202080
 H         0.241910        -1.575314        -0.181730
 H         0.345879        -0.548524         1.218022
 H        -0.963609        -0.137301         0.167462
 H         0.247681         0.335516        -2.642357
 H        -0.419946         1.656958        -1.710951
 H         0.954925         2.195437        -3.830325
 H         3.685510         2.533251        -3.297281
 H         3.525174         0.138063        -2.346503
 H         4.370378         1.326287        -1.165131
 H         3.025529        -0.375330        -0.055433
