19
Iteration:  4822charge 0 multiplicity 1
 C         0.277417        -0.584624        -0.186248
 C         0.985700         0.605564        -0.624351
 C         0.407883         1.334594        -1.825569
 C         1.320663         2.004684        -2.762012
 O         2.169935         3.123870        -2.345168
 C         2.791128         1.878055        -2.696465
 C         3.465857         1.128167        -1.544612
 C         2.481788         0.518892        -0.568214
 O         1.735703         1.363153         0.313109
 H        -0.092406        -1.251542        -0.919350
 H         0.832629        -1.368805         0.412309
 H        -0.707157        -0.362316         0.424591
 H        -0.236940         0.588834        -2.538942
 H        -0.253692         2.084347        -1.329192
 H         0.870466         2.179809        -3.746872
 H         3.462657         2.028957        -3.618993
 H         4.078661         0.397998        -1.984380
 H         4.099798         1.856266        -1.029977
 H         2.727006        -0.414112        -0.052524
