19
Iteration:  2964
 C         0.285493        -0.500861         0.017177
 C         0.990677         0.540715        -0.741040
 C         0.386338         1.087686        -2.016462
 C         1.368583         2.034911        -2.782640
 O         2.088704         2.989212        -1.948410
 C         2.893404         1.977032        -2.758209
 C         3.476275         1.038042        -1.686134
 C         2.486473         0.626379        -0.592564
 O         1.684386         1.550177         0.187064
 H        -0.152749        -1.211013        -0.656551
 H         0.843096        -1.061796         0.772781
 H        -0.606229         0.040860         0.513026
 H         0.183904         0.189775        -2.642914
 H        -0.631269         1.703049        -1.781922
 H         0.975594         2.488206        -3.803584
 H         3.506220         2.502235        -3.605773
 H         3.629028        -0.026100        -2.193368
 H         4.387196         1.356625        -1.185531
 H         2.881682        -0.103350         0.102625
