19
Iteration:  1885charge 0 multiplicity 1
 C         0.125484        -0.549072        -0.141940
 C         1.047600         0.575792        -0.576678
 C         0.458886         1.280721        -1.774617
 C         1.382616         1.970806        -2.842019
 O         2.031198         3.242066        -2.605686
 C         2.874161         2.026800        -2.683400
 C         3.451740         1.164557        -1.556918
 C         2.527387         0.427422        -0.473272
 O         1.737113         1.265228         0.442830
 H        -0.394685        -1.095092        -0.854546
 H         0.773807        -1.335259         0.427205
 H        -0.489854        -0.037010         0.529287
 H        -0.011938         0.411265        -2.325994
 H        -0.285486         1.953956        -1.429559
 H         1.036414         1.726007        -3.956113
 H         3.593779         2.032025        -3.598502
 H         4.030346         0.405587        -2.074637
 H         4.204162         1.660817        -0.939414
 H         2.866595        -0.444015         0.024920
