19
Iteration:  3706
 C         0.202795        -0.574854        -0.139885
 C         1.047744         0.501016        -0.701676
 C         0.481458         1.434117        -1.737903
 C         1.397746         1.987099        -2.837961
 O         2.130683         3.178484        -2.612542
 C         2.820166         1.954313        -2.675618
 C         3.370234         1.226852        -1.475169
 C         2.484990         0.501144        -0.523453
 O         1.716856         1.180792         0.463750
 H        -0.095473        -1.286508        -0.895855
 H         0.782073        -1.072284         0.724538
 H        -0.745994        -0.081994         0.280832
 H        -0.224246         0.773742        -2.159378
 H        -0.298630         2.142996        -1.191202
 H         0.994827         1.913165        -3.814284
 H         3.375179         1.940882        -3.617523
 H         3.863956         0.452175        -2.089467
 H         4.195595         1.676443        -0.866938
 H         2.965853        -0.411572        -0.281037
