19
Iteration:  3926charge 0 multiplicity 1
 C         0.176374        -0.441943         0.061277
 C         1.088727         0.456271        -0.699815
 C         0.600236         1.074820        -2.025567
 C         1.324733         2.153196        -2.775949
 O         2.121315         3.118405        -2.039041
 C         2.812672         1.949775        -2.728573
 C         3.380090         1.018837        -1.759793
 C         2.558926         0.541714        -0.529224
 O         1.587260         1.479529         0.205383
 H        -0.343049        -1.145827        -0.586167
 H         0.685441        -0.896527         0.893455
 H        -0.683231         0.145769         0.448044
 H         0.537395         0.192058        -2.788581
 H        -0.439360         1.374773        -1.835176
 H         0.972322         2.429664        -3.752677
 H         3.561536         2.266954        -3.532829
 H         3.576645         0.027911        -2.232437
 H         4.420315         1.321722        -1.368232
 H         3.102938        -0.156789         0.203069
