19
Iteration:  3610
 C         0.239781        -0.515369         0.090394
 C         0.978247         0.520819        -0.673739
 C         0.510779         1.037077        -2.072084
 C         1.480877         2.067683        -2.785480
 O         2.117756         3.169328        -2.020001
 C         2.923290         2.072157        -2.686919
 C         3.318888         0.939942        -1.777053
 C         2.408371         0.606544        -0.558193
 O         1.677863         1.528528         0.231915
 H        -0.026434        -1.279098        -0.609506
 H         0.893647        -0.963769         0.935538
 H        -0.750797        -0.179808         0.485761
 H         0.317819         0.098037        -2.698708
 H        -0.428207         1.329282        -2.041818
 H         0.952877         2.240913        -3.749192
 H         3.463930         2.179456        -3.648083
 H         3.331121         0.013784        -2.392174
 H         4.328183         1.068408        -1.458243
 H         2.898555        -0.249797        -0.033755
