19
Iteration:  1372charge 0 multiplicity 1
 C         0.242204        -0.536751         0.067434
 C         0.986177         0.534021        -0.775002
 C         0.366119         1.547816        -1.665302
 C         1.294681         2.112339        -2.788402
 O         2.127261         3.200487        -2.369128
 C         2.821979         1.981897        -2.658359
 C         3.402618         1.060195        -1.629755
 C         2.458262         0.331364        -0.722376
 O         1.913926         1.137731         0.257012
 H         0.420620        -0.382476         1.170737
 H        -0.907779        -0.424628         0.066035
 H         0.520372        -1.587885        -0.272114
 H        -0.455322         0.979647        -2.287281
 H        -0.292796         2.221271        -1.154114
 H         0.887843         2.294113        -3.754922
 H         3.464554         2.031009        -3.644819
 H         4.022642         0.347379        -2.186860
 H         4.145013         1.650118        -1.058542
 H         2.711717        -0.761463        -0.416172
