19
Iteration:   355charge 0 multiplicity 1
 C         0.100001        -0.558690        -0.054394
 C         1.075913         0.483316        -0.670979
 C         0.344711         1.474655        -1.576394
 C         1.283627         2.204141        -2.666217
 O         2.196331         3.233933        -2.097181
 C         2.707171         2.014331        -2.690649
 C         3.369654         0.857035        -1.937966
 C         2.506135         0.365986        -0.779244
 O         2.032345         1.254310         0.221384
 H         0.587606        -1.447914         0.433227
 H        -0.452804         0.003568         0.762635
 H        -0.599397        -0.917261        -0.721958
 H        -0.382479         0.938629        -2.102791
 H        -0.200194         2.287410        -1.105446
 H         0.605242         2.514556        -3.560508
 H         3.219551         2.284597        -3.736028
 H         3.462640         0.042581        -2.668579
 H         4.475324         1.102661        -1.752212
 H         3.027723        -0.557816        -0.405731
