19
Iteration:  1008charge 0 multiplicity 1
 C         0.129470        -0.435684        -0.151990
 C         1.087319         0.560970        -0.628985
 C         0.468648         1.623965        -1.477176
 C         1.180483         2.257787        -2.649244
 O         2.200513         3.214747        -2.265934
 C         2.532312         1.863998        -2.785781
 C         3.374633         1.085201        -1.819226
 C         2.528511         0.261526        -0.861557
 O         2.097996         0.921637         0.377623
 H        -0.762627         0.222111         0.234379
 H        -0.176742        -1.094653        -1.036836
 H         0.439782        -0.970610         0.726716
 H        -0.103070         1.032190        -2.057740
 H        -0.162396         2.219509        -0.916716
 H         0.508471         2.520579        -3.440350
 H         2.957535         1.978971        -3.881029
 H         4.070749         0.425915        -2.414284
 H         4.051083         1.821610        -1.290761
 H         2.834759        -0.811669        -0.604571
