19
Iteration:  4831
 C         0.219323        -0.507721        -0.169404
 C         1.072016         0.638100        -0.698111
 C         0.426399         1.242732        -1.857122
 C         1.316017         2.050858        -2.749689
 O         2.168432         3.127498        -2.281856
 C         2.775009         1.873919        -2.698203
 C         3.426257         1.146228        -1.545712
 C         2.519678         0.445598        -0.598313
 O         1.702968         1.361566         0.324702
 H        -0.180484        -1.075547        -1.007635
 H         0.923411        -1.032164         0.471713
 H        -0.553036        -0.268482         0.613227
 H         0.022901         0.357394        -2.392606
 H        -0.383597         1.824399        -1.521296
 H         0.741359         2.199643        -3.756266
 H         3.296846         1.855976        -3.721619
 H         4.099521         0.390791        -1.914580
 H         4.120504         1.798785        -0.991648
 H         2.947940        -0.396014        -0.051739
