19
Iteration:  1944
 C         0.223845        -0.619762        -0.053142
 C         1.066527         0.522402        -0.730942
 C         0.376973         1.348490        -1.766642
 C         1.300074         2.055604        -2.782131
 O         2.198344         3.066845        -2.373959
 C         2.758684         1.807420        -2.643519
 C         3.459917         1.212701        -1.476954
 C         2.561817         0.563031        -0.578337
 O         1.690721         1.371591         0.158938
 H         0.388270        -1.558384        -0.681986
 H         0.386090        -0.685208         0.936241
 H        -0.905233        -0.482545        -0.151082
 H        -0.374983         0.935667        -2.295281
 H        -0.162012         2.142801        -1.159614
 H         0.867036         2.058358        -3.802649
 H         3.431636         1.712115        -3.573998
 H         4.298409         0.605642        -1.877952
 H         3.906312         2.085164        -0.938267
 H         3.001214        -0.357219        -0.029402
