19
Iteration:  3448
 C         0.270338        -0.687742        -0.442025
 C         1.069093         0.622927        -0.616669
 C         0.436289         1.606426        -1.599663
 C         1.211216         1.889854        -2.821683
 O         2.265812         3.062008        -2.582143
 C         2.671180         1.749244        -2.758798
 C         3.407396         1.298444        -1.438263
 C         2.509613         0.506076        -0.442803
 O         1.720245         1.258137         0.490246
 H         0.052023        -1.002684        -1.454198
 H         0.987256        -1.396283         0.088634
 H        -0.696380        -0.701091        -0.027308
 H        -0.541839         1.377809        -1.826371
 H         0.344518         2.686963        -1.067260
 H         0.782006         1.680242        -3.870579
 H         3.227705         1.634688        -3.706078
 H         4.471495         0.875095        -1.543411
 H         3.605445         2.316934        -1.043421
 H         3.122967        -0.273742        -0.026950
