19
Iteration:  2080
 C         0.164558        -0.340152         0.105308
 C         0.980458         0.506072        -0.740486
 C         0.528066         1.128051        -2.045936
 C         1.404200         2.014571        -2.828599
 O         2.041654         3.221334        -2.238488
 C         2.796805         2.031815        -2.611084
 C         3.489278         1.123140        -1.593959
 C         2.470981         0.392731        -0.543298
 O         1.722394         1.277464         0.212152
 H        -0.212632        -1.190237        -0.440885
 H         1.022597        -0.726739         0.941201
 H        -0.575175         0.141125         0.736538
 H         0.355725         0.242300        -2.681876
 H        -0.438774         1.585479        -1.874772
 H         0.979179         2.080858        -3.775504
 H         3.393516         2.181551        -3.435006
 H         4.000896         0.414932        -2.293987
 H         4.332234         1.628134        -1.070329
 H         2.932759        -0.458109         0.023245
