19
Iteration:   980charge 0 multiplicity 1
 C         0.083218        -0.567709        -0.158514
 C         1.022005         0.525092        -0.614243
 C         0.368146         1.618648        -1.473235
 C         1.265462         2.189646        -2.615866
 O         2.127551         3.317680        -2.236349
 C         2.672860         1.979104        -2.771140
 C         3.406740         0.908638        -1.945547
 C         2.510107         0.302484        -0.744633
 O         2.152390         1.070348         0.329144
 H        -0.945906        -0.280514        -0.334681
 H         0.201607        -1.414520        -0.832869
 H         0.337077        -0.895297         0.883352
 H        -0.712462         1.380005        -1.999144
 H         0.314327         2.511180        -0.724293
 H         0.612390         2.385136        -3.500227
 H         3.078819         2.194434        -3.707823
 H         3.473264         0.082998        -2.660629
 H         4.430061         1.168577        -1.673959
 H         2.839454        -0.662134        -0.436103
