19
Iteration:  1971
 C         0.251640        -0.686193        -0.043117
 C         0.993979         0.556416        -0.681662
 C         0.400968         1.257077        -1.829455
 C         1.331506         2.045855        -2.738719
 O         2.210865         3.197234        -2.422732
 C         2.844811         1.961302        -2.756908
 C         3.488756         1.034819        -1.588013
 C         2.473313         0.574279        -0.511182
 O         1.654191         1.436181         0.336330
 H         0.457366        -1.536639        -0.641940
 H         0.544998        -0.743463         1.126363
 H        -0.816136        -0.683229         0.032476
 H        -0.207685         0.553454        -2.588961
 H        -0.396684         1.921687        -1.513921
 H         0.854740         2.171251        -3.703945
 H         3.348955         1.914877        -3.676681
 H         3.941507         0.213751        -2.142798
 H         4.256984         1.611901        -1.060468
 H         2.791280        -0.318497        -0.046905
