19
Iteration:  3383
 C         0.089609        -0.604946        -0.328686
 C         1.058918         0.448990        -0.648228
 C         0.566693         1.704606        -1.538977
 C         1.386145         1.921971        -2.850245
 O         2.067517         3.041874        -2.799625
 C         2.825500         1.803767        -2.718410
 C         3.356282         1.510264        -1.343515
 C         2.517779         0.481843        -0.575582
 O         1.778585         1.042676         0.516719
 H         0.054645        -1.366204        -1.171750
 H         0.542437        -1.130813         0.626769
 H        -0.897278        -0.160663        -0.144243
 H        -0.423792         1.567561        -1.750229
 H         0.777115         2.481260        -0.705949
 H         0.778602         1.549046        -3.739749
 H         3.428177         1.510347        -3.583001
 H         4.442833         1.141366        -1.394910
 H         3.205963         2.387025        -0.670990
 H         2.977388        -0.392876        -0.296293
