19
Iteration:  4232charge 0 multiplicity 1
 C         0.223964        -0.646531        -0.312691
 C         1.056675         0.626962        -0.637307
 C         0.458939         1.353240        -1.725167
 C         1.350205         1.924844        -2.777519
 O         2.104130         3.061429        -2.334677
 C         2.809810         1.828903        -2.713934
 C         3.470942         1.132555        -1.617101
 C         2.536142         0.588773        -0.523570
 O         1.657873         1.451430         0.401494
 H        -0.126386        -1.033894        -1.266422
 H         0.663324        -1.320165         0.365758
 H        -0.860951        -0.257444         0.061539
 H        -0.277742         0.569610        -2.222044
 H        -0.126860         2.189691        -1.436591
 H         0.885404         2.130253        -3.741723
 H         3.482281         2.010830        -3.611857
 H         4.199931         0.439323        -2.034737
 H         4.086674         1.732424        -0.984965
 H         3.035193        -0.218719         0.107653
