19
Iteration:   513charge 0 multiplicity 1
 C         0.005784        -0.431309         0.054103
 C         1.073250         0.492705        -0.650386
 C         0.428254         1.479599        -1.583636
 C         1.237462         2.254718        -2.545995
 O         2.230679         3.202550        -2.017990
 C         2.641353         2.017701        -2.741819
 C         3.398328         0.953711        -1.992907
 C         2.529353         0.176760        -0.942484
 O         2.057363         1.177072         0.129814
 H        -0.891425         0.034733        -0.047799
 H        -0.082029        -1.370439        -0.432621
 H         0.262975        -0.688796         1.160924
 H        -0.314009         0.868251        -2.134676
 H        -0.397829         2.053746        -1.123745
 H         0.729487         2.684896        -3.407923
 H         3.054386         2.136485        -3.744793
 H         3.988637         0.237122        -2.655617
 H         4.233507         1.478635        -1.477688
 H         3.092140        -0.688137        -0.471864
