19
Iteration:  4297charge 0 multiplicity 1
 C         0.160513        -0.502093         0.104944
 C         1.025946         0.501016        -0.653242
 C         0.459574         1.115304        -2.021295
 C         1.450896         2.088645        -2.817030
 O         2.066120         3.187356        -2.154651
 C         2.887997         2.120582        -2.626991
 C         3.365708         1.004477        -1.680781
 C         2.478815         0.446031        -0.602144
 O         1.748929         1.391711         0.172059
 H         0.267218        -1.543333        -0.156578
 H         0.475915        -0.507271         1.109942
 H        -1.001542        -0.265531         0.137818
 H         0.283846         0.262833        -2.735938
 H        -0.497594         1.674699        -1.820097
 H         0.914995         2.433329        -3.662763
 H         3.664743         2.336667        -3.416139
 H         3.702622         0.140764        -2.375077
 H         4.290574         1.423842        -1.215241
 H         2.938350        -0.350543         0.026886
