19
Iteration:  2377charge 0 multiplicity 1
 C         0.167148        -0.465352         0.016976
 C         1.025607         0.545150        -0.705384
 C         0.442688         1.224427        -1.894866
 C         1.382079         1.914865        -2.843024
 O         2.077176         3.178491        -2.276699
 C         2.837628         2.071010        -2.633854
 C         3.469242         1.048049        -1.582890
 C         2.505591         0.482138        -0.614474
 O         1.735423         1.350386         0.273945
 H         0.040584        -1.411923        -0.523977
 H         0.657838        -0.665308         0.954250
 H        -0.860672        -0.108115         0.128497
 H        -0.085792         0.442499        -2.468214
 H        -0.413154         1.971208        -1.595285
 H         1.052836         2.026586        -3.897924
 H         3.375607         2.061887        -3.592470
 H         4.060284         0.287974        -2.146636
 H         4.155002         1.667562        -0.964053
 H         3.089115        -0.422235        -0.146329
