19
Iteration:   538
 C         0.265542        -0.488515         0.011789
 C         0.994128         0.518856        -0.753426
 C         0.306055         1.492019        -1.636789
 C         1.252203         2.316996        -2.518611
 O         2.264640         3.127502        -1.952672
 C         2.706841         2.004457        -2.715745
 C         3.329293         0.812561        -1.999399
 C         2.475240         0.352097        -0.811137
 O         1.994660         1.229154         0.079335
 H        -0.833082        -0.257394        -0.037026
 H         0.390643        -1.497353        -0.324821
 H         0.620277        -0.473650         0.988830
 H        -0.683498         1.053256        -2.098867
 H        -0.416931         2.116663        -1.024986
 H         0.801019         2.816894        -3.381502
 H         3.216691         2.154780        -3.628041
 H         3.467710        -0.059444        -2.714400
 H         4.394596         0.993846        -1.799061
 H         2.989731        -0.506157        -0.310843
