19
Iteration:   821charge 0 multiplicity 1
 C         0.129703        -0.310773         0.098425
 C         1.048051         0.539268        -0.701924
 C         0.314162         1.397702        -1.749196
 C         1.193402         2.305272        -2.552946
 O         2.166011         3.159509        -1.930209
 C         2.667000         1.993135        -2.727056
 C         3.487775         0.953131        -1.999124
 C         2.525947         0.196339        -0.911439
 O         2.066535         1.086656         0.137908
 H        -0.350082         0.277374         0.858238
 H        -0.594445        -0.831795        -0.508154
 H         0.719409        -1.011704         0.727166
 H        -0.239222         0.591027        -2.497928
 H        -0.603294         1.925314        -1.302726
 H         0.688564         2.914691        -3.294324
 H         3.129650         2.392938        -3.744533
 H         4.073159         0.321139        -2.671675
 H         4.239541         1.468830        -1.396748
 H         2.870770        -0.734248        -0.357087
