19
Iteration:   918
 C         0.185867        -0.532131        -0.021730
 C         1.025670         0.568255        -0.620025
 C         0.353971         1.459058        -1.674286
 C         1.190012         2.416337        -2.443806
 O         2.346530         3.033057        -2.004483
 C         2.579056         1.926183        -2.808267
 C         3.340418         0.944930        -2.004854
 C         2.489190         0.338826        -0.881568
 O         2.014188         1.237498         0.192838
 H        -0.610745        -0.166721         0.551772
 H        -0.092173        -1.225500        -0.790989
 H         0.743074        -1.152428         0.828529
 H         0.031603         0.860848        -2.414812
 H        -0.544134         1.821359        -1.316551
 H         0.665543         3.002497        -3.259855
 H         3.147859         2.196609        -3.776806
 H         3.668559         0.142371        -2.708760
 H         4.300439         1.452370        -1.627695
 H         2.994878        -0.569622        -0.422822
