19
Iteration:  4937charge 0 multiplicity 1
 C         0.123256        -0.402234        -0.000224
 C         1.036938         0.568037        -0.738446
 C         0.476171         1.049340        -1.989929
 C         1.315711         2.081331        -2.771340
 O         2.076792         3.088958        -2.026225
 C         2.844588         1.963716        -2.667093
 C         3.479616         1.070345        -1.685971
 C         2.500270         0.486386        -0.587308
 O         1.769794         1.462546         0.215083
 H         0.163823        -1.352632        -0.631898
 H         0.653435        -0.619393         0.909052
 H        -0.817656         0.083682         0.005598
 H         0.391601         0.191754        -2.746331
 H        -0.629504         1.322697        -1.902263
 H         0.842941         2.431112        -3.667496
 H         3.446621         2.159591        -3.545087
 H         3.816312         0.177240        -2.269039
 H         4.324795         1.535160        -1.169646
 H         2.976497        -0.398131        -0.098358
