19
Iteration:  4252
 C         0.243549        -0.634982        -0.125274
 C         1.000759         0.535742        -0.729147
 C         0.318373         1.297270        -1.810232
 C         1.330058         2.049443        -2.793369
 O         2.195818         3.044726        -2.213001
 C         2.795046         1.858453        -2.703274
 C         3.501234         1.190817        -1.541127
 C         2.498911         0.519848        -0.522903
 O         1.735593         1.476675         0.175781
 H         0.180484        -1.360593        -0.932797
 H         0.665615        -1.111243         0.719090
 H        -0.916637        -0.411133         0.051963
 H        -0.297786         0.684324        -2.482662
 H        -0.310251         2.134705        -1.328407
 H         0.886708         2.165065        -3.767142
 H         3.379517         1.992328        -3.660484
 H         4.161682         0.286516        -1.734764
 H         4.168233         1.932052        -1.002673
 H         2.960855        -0.299175         0.049244
