19
Iteration:  2445charge 0 multiplicity 1
 C         0.206096        -0.551951        -0.200841
 C         1.101348         0.567177        -0.661586
 C         0.335821         1.428778        -1.847644
 C         1.324644         1.926777        -2.782299
 O         2.048890         3.018046        -2.327277
 C         2.809670         1.811699        -2.741444
 C         3.523259         1.219963        -1.511175
 C         2.547638         0.561505        -0.543200
 O         1.774878         1.359754         0.344251
 H        -0.693987        -0.738805        -0.855715
 H         0.661689        -1.402162         0.021328
 H        -0.409771        -0.262950         0.643194
 H        -0.221438         0.620375        -2.439140
 H        -0.333452         2.282237        -1.498215
 H         1.073665         1.967554        -3.936150
 H         3.362201         1.933789        -3.673084
 H         4.388007         0.531582        -1.675552
 H         3.909843         1.977881        -0.832619
 H         2.937247        -0.373137         0.046155
