19
Iteration:  2547charge 0 multiplicity 1
 C         0.152621        -0.447559        -0.105387
 C         1.047691         0.578556        -0.669619
 C         0.373943         1.277113        -1.858622
 C         1.272030         1.974640        -2.790809
 O         2.028923         3.064102        -2.223902
 C         2.831872         1.869588        -2.679381
 C         3.584215         1.188335        -1.526537
 C         2.513091         0.441064        -0.639753
 O         1.868070         1.376056         0.235819
 H         0.366431        -1.406608        -0.389383
 H         0.077787        -0.507634         0.996812
 H        -0.840282        -0.169874        -0.392969
 H        -0.200492         0.485876        -2.500226
 H        -0.339929         2.005612        -1.590262
 H         0.851097         2.300258        -3.759398
 H         3.282191         1.884378        -3.686942
 H         4.273290         0.484550        -1.990513
 H         4.027955         1.879326        -0.866239
 H         2.883639        -0.429734        -0.155858
