19
Iteration:  1079
 C         0.154425        -0.581878        -0.126719
 C         1.068080         0.536835        -0.661075
 C         0.382028         1.681569        -1.500508
 C         1.188127         2.175970        -2.739097
 O         2.152359         3.229075        -2.295635
 C         2.699566         2.027509        -2.713371
 C         3.395210         0.926611        -1.865562
 C         2.563897         0.315874        -0.720024
 O         2.008910         1.084144         0.339424
 H         0.328299        -0.690977         0.914471
 H        -0.815308        -0.273586        -0.393411
 H         0.282920        -1.677521        -0.548566
 H        -0.559258         1.086191        -1.778012
 H         0.214385         2.590179        -0.797376
 H         0.600740         2.250784        -3.719684
 H         3.308670         2.274017        -3.521719
 H         3.615796         0.084442        -2.454700
 H         4.332033         1.170267        -1.442161
 H         2.740828        -0.664883        -0.429474
