19
Iteration:  1803charge 0 multiplicity 1
 C         0.277852        -0.533538        -0.037130
 C         1.099367         0.530742        -0.632702
 C         0.389869         1.188777        -1.994697
 C         1.307736         2.003820        -2.894192
 O         2.094065         3.121532        -2.204839
 C         2.803992         1.989466        -2.630112
 C         3.442655         0.983593        -1.657951
 C         2.545544         0.554942        -0.444758
 O         1.713203         1.516127         0.238860
 H        -0.095366        -1.213562        -0.913245
 H         0.730866        -1.079827         0.735489
 H        -0.799818        -0.277281         0.404108
 H        -0.051177         0.283039        -2.630903
 H        -0.590463         1.748379        -1.766529
 H         0.941343         2.329338        -3.779100
 H         3.491749         2.133181        -3.367842
 H         3.747704         0.067660        -2.230122
 H         4.308035         1.501589        -1.185349
 H         3.032126        -0.147893         0.303070
