19
Iteration:  3096
 C         0.220602        -0.715539        -0.296205
 C         1.011367         0.517602        -0.651451
 C         0.436956         1.570185        -1.496559
 C         1.332671         2.034052        -2.734917
 O         2.185618         3.138662        -2.870162
 C         2.783870         1.903421        -2.742479
 C         3.503051         1.336433        -1.354018
 C         2.509290         0.508850        -0.497592
 O         1.655770         1.126078         0.436894
 H        -0.134409        -1.246782        -1.177120
 H         0.858231        -1.176237         0.378458
 H        -0.738430        -0.581283         0.393218
 H        -0.454169         1.079131        -1.954133
 H        -0.045833         2.459112        -0.832009
 H         0.892742         1.713324        -3.728545
 H         3.277604         1.346637        -3.626662
 H         4.407507         0.710798        -1.781305
 H         3.992973         2.126683        -0.805138
 H         2.941864        -0.377042        -0.056115
