19
Iteration:  1190charge 0 multiplicity 1
 C         0.150311        -0.388760         0.071857
 C         1.019845         0.574952        -0.684647
 C         0.344123         1.381152        -1.782852
 C         1.309419         2.157810        -2.673308
 O         2.053810         3.187338        -1.933001
 C         2.757002         2.070874        -2.655224
 C         3.379846         0.803626        -1.945456
 C         2.520267         0.308692        -0.829875
 O         2.100317         1.227809         0.140924
 H         0.319370        -1.453189        -0.065215
 H         0.328705        -0.202953         1.125178
 H        -1.049785        -0.279134        -0.194923
 H        -0.090470         0.601896        -2.471403
 H        -0.433090         2.174993        -1.473046
 H         0.734611         2.643163        -3.563342
 H         3.286575         2.455560        -3.492600
 H         3.571117         0.132770        -2.753459
 H         4.258549         1.110993        -1.425828
 H         2.885612        -0.578000        -0.398097
