19
Iteration:  4591
 C         0.179957        -0.779236        -0.354003
 C         0.981863         0.477828        -0.538304
 C         0.454076         1.682073        -1.510897
 C         1.338263         1.921657        -2.804199
 O         2.182286         3.140447        -2.888139
 C         2.839165         1.887148        -2.731134
 C         3.374158         1.386102        -1.430119
 C         2.489362         0.540687        -0.511504
 O         1.746355         1.098629         0.584133
 H         0.338189        -1.277537        -1.316046
 H         0.605603        -1.252832         0.512327
 H        -1.035580        -0.627235        -0.155567
 H        -0.619977         1.576060        -1.824141
 H         0.550425         2.623669        -0.942580
 H         0.909091         1.812941        -3.770828
 H         3.535812         1.515562        -3.582206
 H         4.239775         0.831527        -1.804186
 H         3.830868         2.163558        -0.776661
 H         2.938611        -0.442280        -0.306947
