19
Iteration:  2633charge 0 multiplicity 1
 C         0.253646        -0.464168        -0.005035
 C         1.069258         0.520222        -0.741951
 C         0.427393         1.089301        -1.971731
 C         1.292343         2.144867        -2.701296
 O         2.138580         2.998453        -2.048537
 C         2.794557         1.905670        -2.730288
 C         3.428457         1.002647        -1.632837
 C         2.539637         0.573232        -0.578232
 O         1.676208         1.580253         0.136473
 H        -0.163347        -1.148576        -0.760657
 H         0.962126        -0.958939         0.669486
 H        -0.601827        -0.025669         0.486114
 H         0.401845         0.271144        -2.697434
 H        -0.599466         1.381666        -1.734487
 H         0.827669         2.519546        -3.691487
 H         3.422133         2.234499        -3.554477
 H         3.983596         0.110308        -2.058597
 H         4.237569         1.532485        -1.172044
 H         2.860836        -0.279155         0.059421
