19
Iteration:  4487charge 0 multiplicity 1
 C         0.252108        -0.685423        -0.273742
 C         1.063374         0.568732        -0.733835
 C         0.449320         1.592803        -1.612791
 C         1.311314         2.020431        -2.770769
 O         2.166701         3.181822        -2.731398
 C         2.760068         1.821394        -2.683729
 C         3.406691         1.221437        -1.426033
 C         2.508824         0.480998        -0.497324
 O         1.665448         1.168041         0.485241
 H         0.893916        -1.516847        -0.720061
 H         0.467168        -0.776263         0.889440
 H        -0.722501        -0.668991        -0.583643
 H        -0.553280         1.187318        -1.984017
 H         0.231162         2.516480        -0.973658
 H         0.906086         1.819759        -3.784170
 H         3.440892         1.708130        -3.477966
 H         4.161995         0.509712        -1.822887
 H         3.942385         2.005570        -0.896175
 H         2.926346        -0.477434        -0.125139
