19
Iteration:  4925
 C         0.210198        -0.344481         0.005341
 C         1.100984         0.602916        -0.707935
 C         0.521873         1.079601        -2.142593
 C         1.325676         2.142730        -2.836485
 O         1.989231         3.021279        -1.996754
 C         2.752254         1.981588        -2.583286
 C         3.376171         0.951198        -1.612912
 C         2.545435         0.453300        -0.615471
 O         1.816917         1.461497         0.150563
 H         0.006580        -1.344669        -0.485340
 H         0.532690        -0.512866         1.028157
 H        -0.765853        -0.037655         0.268160
 H         0.394129         0.109581        -2.755861
 H        -0.451898         1.515368        -1.862139
 H         0.953158         2.596385        -3.687465
 H         3.446231         2.394928        -3.266036
 H         3.917714         0.150635        -2.110358
 H         4.173284         1.498474        -1.118377
 H         2.936949        -0.343142         0.062063
