19
Iteration:  3117charge 0 multiplicity 1
 C         0.234017        -0.799689        -0.324571
 C         1.031294         0.499243        -0.626339
 C         0.427591         1.643079        -1.618374
 C         1.324340         1.939730        -2.792468
 O         2.229917         3.124946        -2.750415
 C         2.752807         1.748151        -2.731404
 C         3.397988         1.444080        -1.446428
 C         2.479784         0.557954        -0.527895
 O         1.704362         1.155433         0.551373
 H        -0.334180        -1.033615        -1.229189
 H         0.741382        -1.573461         0.190948
 H        -0.605321        -0.519931         0.511037
 H        -0.636658         1.618310        -1.934856
 H         0.468607         2.471352        -0.842350
 H         0.834262         1.805694        -3.791594
 H         3.446776         1.440271        -3.610795
 H         4.422003         0.891888        -1.581624
 H         3.833132         2.375677        -1.037670
 H         3.140836        -0.210873        -0.074775
