19
Iteration:  4967charge 0 multiplicity 1
 C         0.080698        -0.612868        -0.027826
 C         1.018504         0.391600        -0.688303
 C         0.462337         1.219750        -1.814859
 C         1.380215         2.080415        -2.796005
 O         2.165504         3.178835        -2.252740
 C         2.859557         1.954929        -2.731113
 C         3.455690         1.119139        -1.636400
 C         2.569993         0.553429        -0.578653
 O         1.662814         1.446943         0.238775
 H        -0.030329        -1.427425        -0.779449
 H         0.390425        -1.033544         0.953465
 H        -0.938477        -0.213784         0.215532
 H        -0.112468         0.471763        -2.456951
 H        -0.190242         1.830787        -1.305738
 H         0.896348         2.318052        -3.695438
 H         3.533603         1.999106        -3.564005
 H         3.889876         0.311850        -2.157548
 H         4.365304         1.565403        -1.231588
 H         3.053721        -0.153064         0.133952
