19
Iteration:  4771
 C         0.260542        -0.604047        -0.303835
 C         1.129189         0.602093        -0.661006
 C         0.456523         1.544840        -1.632457
 C         1.320624         1.987665        -2.816544
 O         2.126622         3.179955        -2.615871
 C         2.789778         1.810188        -2.746466
 C         3.400878         1.183586        -1.471082
 C         2.517511         0.495250        -0.511928
 O         1.638226         1.205992         0.503741
 H         0.561255        -1.519099        -0.888405
 H         0.565759        -1.086362         0.657825
 H        -0.768937        -0.493784        -0.507079
 H        -0.384510         1.067463        -1.959242
 H         0.086063         2.360183        -0.938198
 H         0.859188         1.902842        -3.792808
 H         3.289653         1.586685        -3.637541
 H         4.083901         0.357021        -1.886708
 H         3.998880         1.929174        -0.908621
 H         3.001385        -0.359941        -0.015995
