19
Iteration:   554charge 0 multiplicity 1
 C         0.331814        -0.592626         0.020139
 C         1.041272         0.603329        -0.709867
 C         0.331629         1.566833        -1.751548
 C         1.260487         2.343108        -2.642018
 O         2.301747         3.081232        -1.876965
 C         2.636508         1.974321        -2.730144
 C         3.181315         0.763903        -2.012435
 C         2.514672         0.328301        -0.805064
 O         1.966334         1.311906         0.196388
 H        -0.758966        -0.557762         0.116160
 H         0.588436        -1.592278        -0.493575
 H         0.853854        -0.650358         1.077268
 H        -0.297627         1.045051        -2.417600
 H        -0.295398         2.254311        -1.195602
 H         0.751215         2.888859        -3.452887
 H         3.192774         2.331719        -3.672863
 H         3.134157        -0.024338        -2.733737
 H         4.244801         0.952835        -1.751062
 H         2.771131        -0.631845        -0.392564
