19
Iteration:  4929charge 0 multiplicity 1
 C         0.178070        -0.366514        -0.003342
 C         1.112178         0.606285        -0.699546
 C         0.516460         1.046000        -2.104178
 C         1.327743         2.132074        -2.812543
 O         2.013764         3.041200        -2.006315
 C         2.783071         1.958920        -2.596982
 C         3.398061         0.992255        -1.633968
 C         2.516165         0.471534        -0.616083
 O         1.798890         1.457653         0.170334
 H         0.054595        -1.348320        -0.535045
 H         0.663057        -0.500343         1.000510
 H        -0.889842         0.024751         0.186141
 H         0.379009         0.203114        -2.753681
 H        -0.606141         1.474144        -1.816879
 H         0.803175         2.646745        -3.767579
 H         3.516471         2.306949        -3.396983
 H         3.908583         0.082812        -2.181672
 H         4.228745         1.536006        -1.071069
 H         2.992099        -0.340666        -0.071169
