19
Iteration:  1584charge 0 multiplicity 1
 C         0.160722        -0.543105        -0.038049
 C         1.075260         0.534357        -0.700991
 C         0.425423         1.385005        -1.816508
 C         1.300238         2.087828        -2.810306
 O         2.042480         3.216465        -2.370993
 C         2.783840         1.959420        -2.639423
 C         3.413409         1.076248        -1.625734
 C         2.530063         0.374534        -0.601963
 O         1.887117         1.273522         0.353085
 H        -0.940936        -0.373264        -0.186359
 H         0.363965        -1.496110        -0.278074
 H         0.543340        -0.558126         1.005037
 H        -0.138370         0.625106        -2.440824
 H        -0.325761         1.975446        -1.402784
 H         0.824771         2.233022        -3.856831
 H         3.437008         2.016332        -3.601973
 H         3.900207         0.358720        -2.285397
 H         4.251387         1.570452        -1.123656
 H         2.979396        -0.527609        -0.133193
