19
Iteration:  1968
 C         0.245845        -0.696462        -0.036051
 C         1.012350         0.536665        -0.708700
 C         0.357123         1.274028        -1.831899
 C         1.335286         2.026899        -2.720185
 O         2.215059         3.205501        -2.421887
 C         2.840097         1.950783        -2.774009
 C         3.511400         1.062503        -1.581304
 C         2.459884         0.559954        -0.503002
 O         1.667868         1.444679         0.327366
 H         0.456256        -1.625091        -0.628073
 H         0.527049        -0.690044         1.013042
 H        -0.873614        -0.664763         0.031824
 H        -0.182747         0.654733        -2.524087
 H        -0.441724         1.992756        -1.545516
 H         0.834285         2.161155        -3.615200
 H         3.330176         1.866607        -3.714028
 H         4.012306         0.221886        -2.097336
 H         4.280269         1.631951        -1.004148
 H         2.823324        -0.362422         0.068233
