19
Iteration:  1214
 C         0.087602        -0.224745        -0.032630
 C         1.168873         0.619407        -0.641544
 C         0.401462         1.288959        -1.818598
 C         1.192734         2.235774        -2.658158
 O         2.089011         3.061132        -1.915002
 C         2.645261         2.006027        -2.694718
 C         3.327675         0.930385        -1.904762
 C         2.644207         0.207504        -0.801881
 O         2.099609         1.236422         0.219460
 H        -0.049294        -1.215243        -0.587364
 H         0.182531        -0.498548         1.080534
 H        -0.933456         0.233079        -0.267155
 H         0.171054         0.388046        -2.551607
 H        -0.499481         1.858768        -1.435469
 H         0.714914         2.755214        -3.506575
 H         3.129518         2.276929        -3.567935
 H         3.501061         0.253459        -2.706140
 H         4.261689         1.362619        -1.594328
 H         2.940029        -0.788223        -0.480022
