19
Iteration:  4365
 C         0.131103        -0.422594         0.081978
 C         1.021204         0.523992        -0.773470
 C         0.398037         1.116550        -2.104701
 C         1.384135         2.034257        -2.744870
 O         2.014042         3.079049        -2.047458
 C         2.830293         1.994022        -2.636951
 C         3.505814         1.058168        -1.591914
 C         2.543225         0.495206        -0.576967
 O         1.801145         1.432046         0.108278
 H        -0.432629        -1.107201        -0.583825
 H         0.766022        -1.009696         0.848935
 H        -0.521255         0.279082         0.640016
 H         0.037151         0.245269        -2.682538
 H        -0.507691         1.644184        -1.871256
 H         0.944709         2.447110        -3.650302
 H         3.527499         2.350205        -3.405185
 H         3.975724         0.264565        -2.209391
 H         4.295495         1.633064        -1.127055
 H         3.138255        -0.367699        -0.155629
