19
Iteration:   274charge 0 multiplicity 1
 C         0.118321        -0.370220         0.049567
 C         1.120165         0.522167        -0.678242
 C         0.418450         1.342999        -1.780061
 C         1.254540         2.306668        -2.629347
 O         2.091180         3.191963        -1.984341
 C         2.756189         2.079965        -2.704856
 C         3.270331         0.832670        -1.993541
 C         2.529356         0.237666        -0.866822
 O         2.099987         1.221305         0.290667
 H         0.542265        -0.998808         0.932757
 H        -0.631216         0.275844         0.459443
 H        -0.488382        -1.055582        -0.685461
 H        -0.038152         0.593879        -2.463435
 H        -0.363851         1.910536        -1.316149
 H         0.768168         2.647381        -3.479837
 H         3.147935         2.444031        -3.594589
 H         3.353544         0.010111        -2.756819
 H         4.279721         1.015772        -1.623118
 H         2.813614        -0.726423        -0.510659
