19
Iteration:  3393charge 0 multiplicity 1
 C         0.100240        -0.659969        -0.330725
 C         1.028022         0.543171        -0.647279
 C         0.511192         1.644447        -1.511753
 C         1.316243         1.819293        -2.749459
 O         2.134654         3.103856        -2.849513
 C         2.829424         1.851452        -2.713691
 C         3.449327         1.508976        -1.356233
 C         2.546757         0.506050        -0.606011
 O         1.709440         1.033644         0.531748
 H        -0.017896        -1.393857        -1.142932
 H         0.360332        -1.230802         0.603976
 H        -0.890675        -0.247492        -0.120877
 H        -0.507919         1.634672        -1.635295
 H         0.652665         2.654917        -0.954073
 H         0.931708         1.440402        -3.751990
 H         3.387637         1.650767        -3.633473
 H         4.398612         0.894490        -1.523659
 H         3.801824         2.388037        -0.785061
 H         3.036661        -0.413142        -0.388145
