19
Iteration:  2569
 C         0.102319        -0.379138        -0.019497
 C         1.115978         0.536538        -0.773877
 C         0.417038         1.252215        -1.901647
 C         1.327451         1.897542        -2.873836
 O         1.969981         3.159076        -2.167239
 C         2.817290         2.024272        -2.584709
 C         3.484587         1.064538        -1.619002
 C         2.599423         0.427884        -0.557069
 O         1.827067         1.340671         0.203226
 H         0.302864        -1.372231        -0.138304
 H         0.199517        -0.292283         1.095213
 H        -0.934976        -0.216758        -0.214535
 H        -0.216465         0.464827        -2.502767
 H        -0.233573         1.985543        -1.515746
 H         1.150540         1.883098        -3.959854
 H         3.465923         2.370863        -3.401353
 H         3.902588         0.236004        -2.204716
 H         4.235709         1.610479        -1.113602
 H         3.039977        -0.399502        -0.052019
