19
Iteration:  1485charge 0 multiplicity 1
 C         0.307277        -0.531963         0.102171
 C         0.969485         0.572605        -0.730755
 C         0.314774         1.298246        -1.917799
 C         1.319871         2.126567        -2.745953
 O         2.125173         3.156960        -2.046886
 C         2.826139         2.013807        -2.629710
 C         3.468763         0.872204        -1.752009
 C         2.451284         0.415775        -0.689115
 O         1.806764         1.412027         0.102917
 H         0.460850        -1.573583        -0.173796
 H         0.829524        -0.363137         0.935375
 H        -0.793834        -0.379054         0.354446
 H        -0.089553         0.467414        -2.578044
 H        -0.510460         1.946115        -1.549394
 H         0.807572         2.566039        -3.682344
 H         3.528652         2.385070        -3.526873
 H         3.708200        -0.007683        -2.381266
 H         4.440782         1.168473        -1.320693
 H         2.849852        -0.364087        -0.003682
