19
Iteration:  2916charge 0 multiplicity 1
 C         0.082880        -0.374273         0.028534
 C         1.070548         0.453355        -0.753235
 C         0.486858         1.019670        -2.001006
 C         1.337994         2.041272        -2.755286
 O         1.968564         3.185818        -2.166740
 C         2.814636         2.112664        -2.539868
 C         3.467999         0.976030        -1.685423
 C         2.576542         0.458548        -0.607706
 O         1.853201         1.437111         0.191702
 H        -0.192019        -1.393222        -0.387487
 H         0.510420        -0.501574         1.111068
 H        -0.847423         0.163244         0.097418
 H         0.388210         0.101830        -2.759377
 H        -0.576254         1.426573        -1.791971
 H         0.968720         2.329820        -3.661007
 H         3.400013         2.423157        -3.331317
 H         3.957921         0.225189        -2.300222
 H         4.264957         1.560575        -1.024697
 H         2.962557        -0.393282         0.028469
