19
Iteration:  2999charge 0 multiplicity 1
 C         0.291911        -0.633821        -0.005117
 C         1.073624         0.496332        -0.666224
 C         0.415738         1.237877        -1.876190
 C         1.364209         2.101383        -2.871540
 O         2.152797         3.255444        -2.359078
 C         2.791409         1.985297        -2.654764
 C         3.402559         1.022332        -1.534029
 C         2.469073         0.432676        -0.488899
 O         1.672918         1.429666         0.228371
 H        -0.143661        -1.326486        -0.777494
 H         0.829393        -1.126706         0.734508
 H        -0.584683        -0.146150         0.467256
 H        -0.046077         0.475278        -2.482857
 H        -0.522085         1.839858        -1.518605
 H         1.033416         2.224758        -4.000212
 H         3.486600         2.143897        -3.569930
 H         3.949038         0.150193        -2.094471
 H         4.201644         1.509875        -1.075602
 H         2.915598        -0.250726         0.180781
