19
Iteration:  4327charge 0 multiplicity 1
 C         0.087573        -0.308966        -0.102886
 C         1.112201         0.601439        -0.674146
 C         0.496328         0.994237        -2.013945
 C         1.356958         2.022414        -2.785576
 O         1.912434         3.056553        -1.982108
 C         2.837068         2.037814        -2.587392
 C         3.441610         0.986593        -1.741930
 C         2.608206         0.468442        -0.537430
 O         1.850839         1.485945         0.174330
 H         0.004212        -1.239735        -0.672899
 H         0.282260        -0.637356         0.895574
 H        -0.922409         0.122887        -0.144061
 H         0.433075         0.177137        -2.669721
 H        -0.545614         1.517383        -1.872861
 H         0.800415         2.525194        -3.604013
 H         3.439936         2.358510        -3.437034
 H         3.661905         0.015743        -2.267872
 H         4.495896         1.354769        -1.437798
 H         2.894650        -0.342377         0.077499
