19
Iteration:    32
 C         0.254367        -0.522706        -0.275005
 C         1.110851         0.782535        -0.571620
 C         0.360582         1.616414        -1.612481
 C         1.225091         2.204926        -2.713831
 O         2.101614         3.027434        -2.028429
 C         2.603507         1.850770        -2.720130
 C         3.362714         0.883799        -1.826378
 C         2.472826         0.395732        -0.793662
 O         2.163844         1.191918         0.321674
 H         0.625187        -1.048498         0.479176
 H        -0.737237        -0.206289         0.009827
 H         0.063696        -1.204087        -1.206058
 H        -0.520541         0.986970        -1.903031
 H        -0.124740         2.429592        -1.211866
 H         0.683011         2.574728        -3.572731
 H         2.964542         2.182929        -3.751892
 H         3.269684        -0.041805        -2.503009
 H         4.377687         1.156721        -1.683184
 H         2.525561        -0.728304        -0.562215
