19
Iteration:  4700charge 0 multiplicity 1
 C         0.144737        -0.636086        -0.234447
 C         1.060009         0.457752        -0.668573
 C         0.477337         1.638486        -1.671914
 C         1.327824         1.972283        -2.921769
 O         2.114535         3.160448        -2.776749
 C         2.793773         1.839399        -2.647877
 C         3.428269         1.399355        -1.305990
 C         2.562851         0.451812        -0.527190
 O         1.711302         1.046214         0.488095
 H        -0.502055        -1.237794        -0.777050
 H         0.751689        -1.359391         0.242796
 H        -0.524229        -0.110841         0.515609
 H        -0.701003         1.547975        -1.833221
 H         0.697894         2.506561        -1.106388
 H         0.996553         1.555576        -3.860300
 H         3.472494         1.840237        -3.583989
 H         4.248773         0.815560        -1.601534
 H         3.747451         2.273983        -0.748248
 H         3.093194        -0.474253        -0.295203
