19
Iteration:  4265
 C         0.269425        -0.621483        -0.037008
 C         1.045353         0.492108        -0.777885
 C         0.312576         1.345752        -1.931184
 C         1.336059         2.067956        -2.721770
 O         2.172810         3.115112        -2.230067
 C         2.814098         1.864588        -2.611040
 C         3.454265         1.077108        -1.528565
 C         2.523702         0.546152        -0.595491
 O         1.701048         1.418194         0.146566
 H         0.298139        -1.638466        -0.466502
 H         0.703522        -0.676452         0.936367
 H        -0.830454        -0.172037         0.222392
 H        -0.257182         0.532084        -2.579318
 H        -0.490470         1.911589        -1.498271
 H         1.018624         2.436660        -3.683650
 H         3.494920         1.967405        -3.525621
 H         4.115160         0.460942        -2.124248
 H         4.035238         1.812564        -0.993990
 H         2.899599        -0.281217         0.092111
