19
Iteration:  3390charge 0 multiplicity 1
 C         0.097116        -0.652730        -0.326177
 C         1.025162         0.509174        -0.647600
 C         0.537594         1.667733        -1.522496
 C         1.335956         1.850572        -2.778036
 O         2.117675         3.085047        -2.832243
 C         2.830037         1.836151        -2.720433
 C         3.429416         1.517188        -1.352733
 C         2.545345         0.509315        -0.612496
 O         1.724283         1.040244         0.532971
 H         0.027731        -1.368170        -1.087630
 H         0.368626        -1.163777         0.511810
 H        -0.882028        -0.196514        -0.118901
 H        -0.606016         1.601969        -1.630993
 H         0.684381         2.552338        -0.894980
 H         0.903320         1.417529        -3.694083
 H         3.394070         1.632814        -3.631425
 H         4.353371         0.928384        -1.472954
 H         3.645817         2.388955        -0.728596
 H         3.066171        -0.507521        -0.343229
