19
Iteration:  1730charge 0 multiplicity 1
 C         0.259944        -0.361960         0.016446
 C         1.043718         0.533203        -0.799758
 C         0.403977         1.195768        -1.981237
 C         1.324506         1.980736        -2.782708
 O         2.011883         3.007529        -2.053037
 C         2.778072         1.925112        -2.588969
 C         3.512449         1.121160        -1.605543
 C         2.504609         0.458383        -0.652890
 O         1.801658         1.419978         0.114460
 H         0.777577        -1.224574         0.526465
 H        -0.148124         0.272908         0.941644
 H        -0.623752        -0.685037        -0.480227
 H        -0.032455         0.546489        -2.680828
 H        -0.458758         1.717465        -1.584698
 H         1.004676         2.234841        -3.950125
 H         3.395695         2.153190        -3.667670
 H         4.303339         0.428233        -1.909831
 H         3.931911         1.841050        -0.878133
 H         2.938853        -0.208040         0.046776
