19
Iteration:  3306charge 0 multiplicity 1
 C         0.269275        -0.677630        -0.486964
 C         1.085164         0.582508        -0.621869
 C         0.547140         1.747448        -1.482252
 C         1.278119         1.846688        -2.776218
 O         2.136401         2.995493        -2.918653
 C         2.804075         1.778008        -2.650528
 C         3.350817         1.477980        -1.336692
 C         2.481727         0.494475        -0.494879
 O         1.667913         1.085293         0.547529
 H        -0.357261        -0.713014        -1.447565
 H         0.912215        -1.635320        -0.202722
 H        -0.533841        -0.558053         0.336943
 H        -0.523834         1.731780        -1.528187
 H         0.914333         2.702102        -0.877939
 H         0.646009         1.548149        -3.669226
 H         3.461614         1.623514        -3.505789
 H         4.427008         1.134740        -1.553714
 H         3.501389         2.359020        -0.688100
 H         2.918378        -0.344330        -0.131697
