19
Iteration:  3386charge 0 multiplicity 1
 C         0.089434        -0.618568        -0.328874
 C         1.038123         0.463653        -0.644836
 C         0.561281         1.698855        -1.533530
 C         1.372518         1.898858        -2.827451
 O         2.085989         3.053930        -2.809543
 C         2.825585         1.817585        -2.721405
 C         3.393558         1.515165        -1.349812
 C         2.534184         0.497331        -0.597932
 O         1.754115         1.044298         0.526103
 H         0.060264        -1.411956        -1.167818
 H         0.500330        -1.172746         0.619973
 H        -0.889407        -0.150909        -0.132741
 H        -0.588637         1.558901        -1.688365
 H         0.743896         2.448641        -0.783153
 H         0.839647         1.468440        -3.652543
 H         3.419692         1.558678        -3.617343
 H         4.347658         1.039632        -1.423228
 H         3.378514         2.401324        -0.658782
 H         3.005416        -0.447184        -0.315544
