19
Iteration:  4570charge 0 multiplicity 1
 C         0.188990        -0.667685        -0.367522
 C         1.056023         0.583896        -0.667394
 C         0.522086         1.686384        -1.585127
 C         1.322122         1.908875        -2.863216
 O         2.042119         3.149633        -2.827388
 C         2.760629         1.833271        -2.663224
 C         3.443667         1.368962        -1.314322
 C         2.532284         0.455180        -0.499015
 O         1.789311         1.038104         0.566979
 H         0.305221        -1.570075        -0.951469
 H         0.156863        -0.821748         0.716476
 H        -1.000739        -0.409845        -0.504621
 H        -0.504985         1.394840        -1.745713
 H         0.423063         2.693737        -1.075352
 H         0.895529         1.636727        -3.801954
 H         3.335704         1.588522        -3.619223
 H         4.358054         0.839649        -1.720130
 H         3.840298         2.264662        -0.743029
 H         3.013579        -0.505198        -0.264624
