19
Iteration:  4559
 C         0.167809        -0.513328        -0.388065
 C         1.107068         0.571805        -0.639886
 C         0.492236         1.609178        -1.548215
 C         1.313677         1.874386        -2.817413
 O         2.019709         3.130816        -2.776639
 C         2.772671         1.798973        -2.644528
 C         3.440634         1.392743        -1.375360
 C         2.587190         0.432196        -0.537052
 O         1.742777         1.034355         0.505366
 H         0.629023        -1.398651        -0.790605
 H         0.361235        -0.687009         0.660457
 H        -0.974581        -0.257841        -0.775670
 H        -0.498769         1.355696        -1.919541
 H         0.504098         2.598828        -1.009760
 H         0.879556         1.729537        -3.776158
 H         3.477393         1.550455        -3.524414
 H         4.475858         0.943640        -1.534431
 H         3.558786         2.273872        -0.656676
 H         2.843187        -0.604139        -0.321245
