19
Iteration:   476
 C         0.181843        -0.345608        -0.037530
 C         1.136667         0.608522        -0.652238
 C         0.380586         1.554277        -1.653481
 C         1.212675         2.271708        -2.722070
 O         2.130023         3.228271        -2.155044
 C         2.610455         2.004867        -2.697994
 C         3.382109         0.963669        -1.922352
 C         2.460560         0.214917        -0.882347
 O         2.105778         0.879632         0.421331
 H        -0.490987         0.279113         0.747505
 H        -0.552845        -0.944177        -0.758412
 H         0.738948        -0.939463         0.678402
 H        -0.185418         0.898714        -2.258685
 H        -0.338736         2.191661        -1.152893
 H         0.674338         2.433543        -3.693651
 H         3.058254         2.155911        -3.784123
 H         3.953526         0.437482        -2.675152
 H         4.209387         1.432888        -1.296800
 H         2.829584        -0.800113        -0.629010
