19
Iteration:  2979charge 0 multiplicity 1
 C         0.280162        -0.584580         0.055262
 C         0.988205         0.594652        -0.684552
 C         0.442626         1.168917        -2.009707
 C         1.418209         2.019301        -2.758108
 O         2.127140         3.099358        -2.156769
 C         2.868573         1.994482        -2.640478
 C         3.429453         1.036881        -1.694570
 C         2.465554         0.611316        -0.583858
 O         1.623143         1.458922         0.225080
 H        -0.163845        -1.346100        -0.661667
 H         1.063951        -0.961681         0.670947
 H        -0.499520        -0.329847         0.735765
 H         0.113396         0.387104        -2.649014
 H        -0.410962         1.741770        -1.835821
 H         0.892206         2.318052        -3.719551
 H         3.444639         2.106987        -3.565637
 H         3.620304         0.105572        -2.229283
 H         4.378005         1.394703        -1.306675
 H         2.874320        -0.279613        -0.122221
