19
Iteration:  2494charge 0 multiplicity 1
 C         0.290871        -0.654131        -0.144125
 C         1.054006         0.516732        -0.706838
 C         0.345308         1.366470        -1.770023
 C         1.376721         2.056324        -2.758250
 O         2.163489         3.279418        -2.528008
 C         2.831588         1.838284        -2.666125
 C         3.452394         0.996410        -1.644276
 C         2.532618         0.590889        -0.390953
 O         1.586832         1.368424         0.378676
 H        -0.114154        -1.422584        -0.771543
 H         1.166205        -1.165523         0.518785
 H        -0.560156        -0.428384         0.521772
 H        -0.318711         0.719336        -2.385117
 H        -0.223461         2.132063        -1.294645
 H         0.947586         2.149329        -3.732025
 H         3.446443         1.805737        -3.588650
 H         3.881718         0.127690        -2.140031
 H         4.316984         1.600073        -1.257644
 H         2.879970        -0.253432         0.095380
