19
Iteration:  2952charge 0 multiplicity 1
 C         0.181072        -0.441737        -0.019080
 C         1.115991         0.550044        -0.743387
 C         0.464877         1.091712        -2.034468
 C         1.321948         2.031348        -2.805262
 O         2.080276         2.945091        -1.914960
 C         2.770673         1.977339        -2.596582
 C         3.464022         0.980237        -1.736760
 C         2.548156         0.594981        -0.570915
 O         1.693872         1.586257         0.107680
 H        -0.139061        -1.230938        -0.655384
 H         0.833700        -0.872226         0.812255
 H        -0.712246         0.045179         0.496599
 H         0.176578         0.238733        -2.736160
 H        -0.621441         1.544431        -1.771505
 H         0.774558         2.524032        -3.666357
 H         3.497637         2.339087        -3.398275
 H         4.056549         0.116810        -2.245832
 H         4.285997         1.627815        -1.321840
 H         3.091723        -0.088696         0.097897
