19
Iteration:  4809
 C         0.228810        -0.771839        -0.158325
 C         0.998940         0.535342        -0.678451
 C         0.319949         1.489720        -1.738318
 C         1.383600         1.993903        -2.832709
 O         2.137919         3.120610        -2.401680
 C         2.861208         1.896720        -2.671849
 C         3.455964         1.135605        -1.552053
 C         2.480788         0.541758        -0.551244
 O         1.746042         1.402127         0.349308
 H         0.093578        -1.219958        -1.144521
 H         0.827177        -1.243112         0.603923
 H        -0.754029        -0.501489         0.361051
 H        -0.499428         0.840004        -2.245541
 H        -0.154066         2.353422        -1.370083
 H         0.916602         2.077686        -3.921587
 H         3.449273         1.888916        -3.679007
 H         4.045600         0.304167        -1.889868
 H         4.220028         1.726645        -1.011628
 H         2.994406        -0.289674        -0.055823
