19
Iteration:   723charge 0 multiplicity 1
 C         0.167726        -0.639503        -0.242420
 C         1.068445         0.519701        -0.604640
 C         0.410855         1.668159        -1.442221
 C         1.231688         2.316528        -2.536312
 O         2.278271         3.156082        -2.178243
 C         2.567842         1.811702        -2.810477
 C         3.380591         0.969292        -1.954958
 C         2.537928         0.417521        -0.823496
 O         1.974569         1.140765         0.315969
 H        -0.828663        -0.241898         0.075568
 H        -0.203269        -1.241905        -1.075420
 H         0.651575        -1.203272         0.675294
 H        -0.438668         1.277168        -1.848314
 H         0.072984         2.530410        -0.814950
 H         0.550317         2.646385        -3.325049
 H         2.863136         1.776669        -3.902333
 H         3.935938         0.127149        -2.418174
 H         4.172511         1.565614        -1.528977
 H         2.847580        -0.600045        -0.448770
