19
Iteration:  4722charge 0 multiplicity 1
 C         0.188617        -0.558874        -0.316067
 C         1.041575         0.579273        -0.628552
 C         0.472152         1.567945        -1.612734
 C         1.327205         1.912946        -2.738383
 O         2.162756         3.091875        -2.703601
 C         2.827059         1.819721        -2.688021
 C         3.403809         1.423348        -1.386516
 C         2.490005         0.400507        -0.589279
 O         1.771846         1.111624         0.454476
 H        -0.066197        -1.300496        -1.057259
 H         0.614821        -1.211449         0.393466
 H        -0.833286        -0.163213         0.017616
 H        -0.520492         0.978273        -2.016675
 H         0.057561         2.440500        -1.131231
 H         0.761808         1.865014        -3.685752
 H         3.412641         1.568862        -3.670168
 H         4.400461         1.154672        -1.539419
 H         3.336800         2.378777        -0.875110
 H         2.918999        -0.563677        -0.327415
