19
Iteration:  2643charge 0 multiplicity 1
 C         0.265564        -0.498531        -0.032459
 C         1.088920         0.531857        -0.734937
 C         0.430034         1.200762        -1.925283
 C         1.302400         2.101347        -2.770422
 O         2.117801         2.971851        -2.005361
 C         2.802024         1.862249        -2.730266
 C         3.459976         1.026827        -1.667257
 C         2.514305         0.595502        -0.491334
 O         1.662689         1.533959         0.070300
 H        -0.271350        -1.241281        -0.732270
 H         0.781522        -1.170846         0.630098
 H        -0.434414         0.040823         0.621506
 H         0.276658         0.416686        -2.612425
 H        -0.608013         1.550966        -1.741076
 H         0.882734         2.597253        -3.710869
 H         3.313416         2.180875        -3.602535
 H         3.984327         0.101598        -2.055094
 H         4.149336         1.759096        -1.262817
 H         3.111021        -0.015622         0.264229
