19
Iteration:  4195charge 0 multiplicity 1
 C         0.256891        -0.647563        -0.204535
 C         1.063485         0.540145        -0.654148
 C         0.443238         1.480999        -1.736551
 C         1.342209         2.016646        -2.912454
 O         2.121400         3.219613        -2.689065
 C         2.799760         1.920988        -2.619982
 C         3.440318         1.169278        -1.434474
 C         2.494890         0.442606        -0.457590
 O         1.669672         1.222697         0.477840
 H         0.085258        -1.407614        -0.968314
 H         0.786286        -1.286139         0.577843
 H        -0.654634        -0.324349         0.325989
 H        -0.357984         1.003036        -2.185184
 H        -0.043128         2.435397        -1.186764
 H         0.892879         1.780124        -3.895499
 H         3.501143         1.923013        -3.438960
 H         3.987939         0.313151        -1.978296
 H         4.167883         1.961317        -1.034767
 H         2.918926        -0.398821         0.007529
