19
Iteration:  4370charge 0 multiplicity 1
 C         0.150571        -0.434728         0.115612
 C         1.002929         0.520029        -0.746697
 C         0.377484         1.111255        -2.077311
 C         1.385731         2.034274        -2.739896
 O         2.051741         3.102892        -2.080803
 C         2.870979         2.023001        -2.654440
 C         3.495451         1.081140        -1.595034
 C         2.528218         0.482622        -0.635742
 O         1.771961         1.405297         0.117825
 H        -0.472120        -1.143739        -0.472244
 H         0.743401        -1.090574         0.749261
 H        -0.580581         0.123621         0.714529
 H         0.111896         0.209072        -2.723109
 H        -0.486742         1.829130        -1.863124
 H         0.977206         2.252098        -3.780310
 H         3.495317         2.460186        -3.443441
 H         3.975980         0.299181        -2.191014
 H         4.324485         1.538804        -0.983090
 H         3.028436        -0.267140         0.014570
