19
Iteration:  2518charge 0 multiplicity 1
 C         0.240410        -0.610625        -0.081509
 C         1.023404         0.525774        -0.606652
 C         0.434998         1.326744        -1.802123
 C         1.297466         2.086481        -2.820185
 O         2.232052         3.115593        -2.408632
 C         2.815251         1.892945        -2.726046
 C         3.353212         1.181846        -1.593640
 C         2.493251         0.511205        -0.533056
 O         1.712574         1.342532         0.327953
 H         0.214951        -1.582676        -0.704881
 H         0.656641        -0.916894         0.994973
 H        -0.861595        -0.409719        -0.035985
 H         0.019445         0.594982        -2.455248
 H        -0.388446         2.041006        -1.487056
 H         0.788001         2.372444        -3.721108
 H         3.429707         1.813513        -3.649049
 H         3.959491         0.397200        -2.095695
 H         4.162886         1.803042        -1.002970
 H         3.044305        -0.260788         0.018067
