19
Iteration:  3213
 C         0.238320        -0.641083        -0.358521
 C         1.073802         0.535750        -0.655679
 C         0.611100         1.723492        -1.514043
 C         1.289164         1.875789        -2.900588
 O         2.193781         3.096070        -2.864301
 C         2.689319         1.761363        -2.737797
 C         3.279392         1.524519        -1.297279
 C         2.492216         0.448687        -0.499721
 O         1.741562         0.970946         0.565490
 H         0.287811        -1.401411        -1.113252
 H         0.505339        -0.902098         0.651057
 H        -0.861808        -0.377538        -0.313151
 H        -0.521454         1.740350        -1.690471
 H         0.815492         2.627587        -1.061453
 H         0.699059         1.820709        -3.808527
 H         3.454577         1.565637        -3.595780
 H         4.392842         1.377444        -1.236722
 H         3.110292         2.435141        -0.601109
 H         3.108037        -0.568900        -0.285289
