19
Iteration:  3114charge 0 multiplicity 1
 C         0.213026        -0.814849        -0.310669
 C         1.044652         0.502057        -0.645094
 C         0.426827         1.652996        -1.600210
 C         1.324947         1.946599        -2.757062
 O         2.224851         3.146370        -2.782823
 C         2.774674         1.740757        -2.713820
 C         3.407394         1.427137        -1.458955
 C         2.481390         0.575164        -0.526295
 O         1.694308         1.157052         0.539212
 H        -0.331318        -1.141679        -1.205647
 H         0.745233        -1.679654         0.255656
 H        -0.580080        -0.492317         0.467028
 H        -0.613338         1.578430        -1.996523
 H         0.374574         2.402932        -0.933353
 H         0.810156         1.828086        -3.687722
 H         3.423693         1.486537        -3.597752
 H         4.330865         0.880086        -1.532628
 H         3.914198         2.364440        -1.006196
 H         3.177913        -0.295315        -0.116131
