19
Iteration:  1654
 C         0.235758        -0.591893        -0.157790
 C         1.118629         0.578807        -0.651793
 C         0.392704         1.297179        -1.847593
 C         1.276507         2.150918        -2.757375
 O         2.148873         3.166402        -2.333310
 C         2.723082         1.846266        -2.725011
 C         3.410108         1.049174        -1.667137
 C         2.583788         0.538924        -0.493014
 O         1.747603         1.374038         0.418141
 H        -0.101971        -0.422498         0.802939
 H        -0.735020        -0.884949        -0.678979
 H         0.764820        -1.413211        -0.313380
 H         0.097301         0.495753        -2.466069
 H        -0.581554         1.851457        -1.546042
 H         0.912625         2.318663        -3.827982
 H         3.242958         1.835770        -3.775425
 H         3.790715         0.073758        -2.078969
 H         4.339302         1.510043        -1.243284
 H         3.076447        -0.283132        -0.012374
