19
Iteration:  1023
 C         0.101344        -0.461795        -0.054062
 C         1.117761         0.575167        -0.679365
 C         0.316730         1.589904        -1.581079
 C         1.191763         2.329402        -2.552562
 O         2.237613         3.214176        -2.301719
 C         2.605931         1.845043        -2.863258
 C         3.376284         1.124641        -1.767944
 C         2.545932         0.252149        -0.823315
 O         2.115383         0.896823         0.334972
 H        -0.669762        -0.061490         0.633486
 H        -0.540398        -1.011204        -0.764289
 H         0.773211        -1.207482         0.352668
 H        -0.591003         1.060561        -2.081426
 H        -0.061648         2.426598        -0.862712
 H         0.661551         2.668440        -3.471064
 H         2.945228         1.792450        -3.888886
 H         4.197058         0.533650        -2.112922
 H         3.755126         1.864745        -1.100558
 H         2.867036        -0.757244        -0.764548
