19
Iteration:  2482
 C         0.326541        -0.699730        -0.189231
 C         0.997556         0.569885        -0.628576
 C         0.423469         1.453602        -1.735778
 C         1.385059         2.006695        -2.807204
 O         2.103420         3.150001        -2.468525
 C         2.831005         1.888005        -2.684665
 C         3.425147         1.022237        -1.562539
 C         2.510115         0.537135        -0.463064
 O         1.626702         1.420349         0.317661
 H        -0.206577        -1.031529        -1.035144
 H         1.015470        -1.544417         0.239462
 H        -0.339310        -0.362727         0.626022
 H        -0.315500         0.844506        -2.351383
 H        -0.151631         2.210420        -1.289883
 H         0.920141         1.924620        -3.785729
 H         3.428678         1.973488        -3.607575
 H         3.866681         0.134244        -2.008930
 H         4.309512         1.548338        -1.149045
 H         3.032257         0.000803         0.239211
