19
Iteration:  4584charge 0 multiplicity 1
 C         0.132432        -0.781975        -0.310184
 C         1.023743         0.507613        -0.602520
 C         0.444756         1.710977        -1.582532
 C         1.297481         1.930591        -2.813962
 O         2.156076         3.117256        -2.882403
 C         2.823148         1.919943        -2.709970
 C         3.379922         1.395006        -1.411610
 C         2.509015         0.525956        -0.493721
 O         1.791820         1.072092         0.596450
 H         0.436076        -1.376253        -1.184663
 H         0.513662        -1.382800         0.572756
 H        -0.886073        -0.459247        -0.432197
 H        -0.511430         1.612383        -1.956024
 H         0.666346         2.612788        -0.844031
 H         0.887732         1.647814        -3.786288
 H         3.460758         1.656521        -3.508301
 H         4.210803         0.602575        -1.598201
 H         3.867382         2.179684        -0.754477
 H         2.894192        -0.475204        -0.233650
