19
Iteration:  4175
 C         0.201367        -0.678320        -0.133815
 C         0.979295         0.547296        -0.681853
 C         0.439752         1.496573        -1.663624
 C         1.421087         1.935834        -2.760912
 O         2.137368         3.166423        -2.646233
 C         2.879592         1.894852        -2.733280
 C         3.412057         1.342281        -1.412342
 C         2.457661         0.447033        -0.606289
 O         1.722230         1.199483         0.367793
 H         0.167476        -1.502321        -0.825904
 H         0.670068        -1.171781         0.729710
 H        -0.875975        -0.411893         0.256267
 H        -0.453045         1.137130        -2.170857
 H         0.171531         2.514676        -1.199340
 H         0.870531         1.865949        -3.679195
 H         3.364180         1.605217        -3.687256
 H         4.354797         0.794512        -1.594765
 H         3.555648         2.085740        -0.610744
 H         2.967184        -0.449469        -0.256532
