19
Iteration:  4623charge 0 multiplicity 1
 C         0.321426        -0.638501        -0.441623
 C         1.085196         0.578522        -0.698166
 C         0.381541         1.701241        -1.567989
 C         1.290119         1.989266        -2.798691
 O         2.202613         3.008401        -2.730490
 C         2.727537         1.687853        -2.666466
 C         3.397362         1.385062        -1.373827
 C         2.549608         0.528865        -0.469251
 O         1.700980         1.119149         0.535516
 H        -0.256586        -1.022499        -1.272904
 H         0.830881        -1.506121        -0.125394
 H        -0.439500        -0.544955         0.437829
 H        -0.714947         1.445290        -1.829086
 H         0.198586         2.600482        -1.037156
 H         0.755613         1.994727        -3.736161
 H         3.216929         1.369851        -3.664110
 H         4.348273         1.051639        -1.690603
 H         3.525145         2.331298        -0.860727
 H         3.082733        -0.408857        -0.300420
