19
Iteration:  2453
 C         0.194651        -0.600033        -0.244134
 C         0.989396         0.584769        -0.695000
 C         0.332314         1.372684        -1.818452
 C         1.335369         1.872210        -2.835901
 O         2.094916         3.037112        -2.314583
 C         2.816056         1.819935        -2.687425
 C         3.510121         1.189418        -1.521021
 C         2.501494         0.586171        -0.530179
 O         1.834214         1.420076         0.370521
 H        -0.562359        -0.898505        -1.007836
 H         0.792040        -1.536686        -0.030813
 H        -0.258127        -0.263791         0.698294
 H        -0.452506         0.866101        -2.290458
 H        -0.202636         2.297204        -1.366522
 H         0.980160         2.000175        -3.845544
 H         3.409264         2.012132        -3.589794
 H         4.275670         0.457065        -1.873443
 H         3.930823         2.151474        -1.110935
 H         3.103921        -0.155075         0.122168
