19
Iteration:  1946charge 0 multiplicity 1
 C         0.232270        -0.628756        -0.062811
 C         1.043500         0.499706        -0.722831
 C         0.362190         1.358484        -1.765189
 C         1.306593         2.059501        -2.779310
 O         2.203032         3.078129        -2.378742
 C         2.773506         1.801232        -2.646728
 C         3.461493         1.212458        -1.482148
 C         2.561035         0.564267        -0.570748
 O         1.697264         1.378659         0.156910
 H         0.368285        -1.576090        -0.648302
 H         0.375411        -0.658727         0.999933
 H        -0.885871        -0.492067        -0.131274
 H        -0.418679         0.888413        -2.360360
 H        -0.214354         2.111776        -1.158851
 H         0.944813         2.072543        -3.750117
 H         3.365979         1.731739        -3.525572
 H         4.254546         0.572011        -1.895653
 H         3.931613         2.097151        -0.988032
 H         3.023117        -0.307679        -0.030300
