19
Iteration:  2157charge 0 multiplicity 1
 C         0.280079        -0.724508        -0.106775
 C         1.005253         0.585990        -0.704492
 C         0.356757         1.393391        -1.848158
 C         1.289682         2.087812        -2.791575
 O         2.266209         3.115616        -2.311187
 C         2.784697         1.795702        -2.741950
 C         3.449343         1.117760        -1.539683
 C         2.508745         0.580900        -0.514183
 O         1.645228         1.397865         0.250044
 H         0.509956        -1.575095        -0.719464
 H         0.792696        -0.810459         0.995611
 H        -0.691945        -0.671121         0.319257
 H        -0.360936         0.772871        -2.341052
 H        -0.222181         2.192214        -1.389320
 H         0.856257         2.315862        -3.742444
 H         3.327707         1.724343        -3.652215
 H         4.114710         0.323008        -1.919428
 H         4.108504         1.906687        -1.110538
 H         2.920062        -0.283519         0.106781
