19
Iteration:  2527charge 0 multiplicity 1
 C         0.160401        -0.609315        -0.099253
 C         1.030192         0.562917        -0.635544
 C         0.419618         1.307686        -1.813488
 C         1.353070         2.059264        -2.787448
 O         2.179705         3.127375        -2.347568
 C         2.795480         1.867874        -2.774671
 C         3.392328         1.137629        -1.604061
 C         2.517131         0.489248        -0.547918
 O         1.764530         1.373580         0.326483
 H         0.504549        -1.477299        -0.624038
 H         0.510988        -0.753333         1.041214
 H        -0.901393        -0.377181         0.004816
 H        -0.099951         0.502249        -2.416702
 H        -0.413641         1.913592        -1.477179
 H         0.895994         2.322105        -3.704769
 H         3.489575         2.001009        -3.633617
 H         4.200511         0.490398        -1.912547
 H         3.778337         2.071929        -1.102622
 H         2.944760        -0.340740        -0.077729
