19
Iteration:  2901
 C         0.098044        -0.417352         0.138771
 C         1.041686         0.538039        -0.649747
 C         0.538738         1.111576        -2.018331
 C         1.395446         2.002188        -2.888812
 O         1.960807         3.211281        -2.177618
 C         2.848226         2.087889        -2.608173
 C         3.430537         1.161401        -1.625049
 C         2.505472         0.374548        -0.632366
 O         1.816431         1.291453         0.234333
 H         0.062113        -1.433558        -0.352080
 H         0.440695        -0.623305         1.088656
 H        -0.877665         0.113026         0.192147
 H         0.245812         0.269360        -2.619712
 H        -0.344415         1.615676        -1.868591
 H         1.104754         2.146971        -4.021105
 H         3.508290         2.353615        -3.515250
 H         3.752776         0.408552        -2.364470
 H         4.414090         1.421588        -1.243203
 H         2.990876        -0.459646        -0.180405
