19
Iteration:   692
 C         0.070543        -0.467390        -0.093982
 C         1.111584         0.428312        -0.640719
 C         0.357855         1.529897        -1.518346
 C         1.161117         2.234650        -2.640395
 O         2.233319         3.314263        -2.317196
 C         2.660213         2.042504        -2.754242
 C         3.375921         1.017127        -1.855611
 C         2.565892         0.226870        -0.800481
 O         2.059051         0.983658         0.336023
 H        -0.433932         0.362030         0.619730
 H        -0.673984        -0.852477        -0.880095
 H         0.362727        -1.347825         0.581428
 H        -0.471322         0.995595        -1.946403
 H         0.129135         2.361950        -0.797039
 H         0.714211         2.595643        -3.550327
 H         3.120061         1.974916        -3.679878
 H         3.916836         0.318351        -2.576022
 H         4.123447         1.569022        -1.262123
 H         2.946980        -0.745148        -0.552768
