19
Iteration:  2721charge 0 multiplicity 1
 C         0.144082        -0.492679        -0.121489
 C         1.080807         0.515874        -0.676448
 C         0.388119         1.338417        -1.877644
 C         1.335182         1.981175        -2.822412
 O         2.085361         3.142895        -2.510303
 C         2.790850         1.938456        -2.721275
 C         3.423831         1.300881        -1.458709
 C         2.570633         0.454054        -0.536296
 O         1.834640         1.153871         0.448822
 H        -0.182629        -1.333396        -0.709669
 H         0.557339        -0.780336         0.939697
 H        -0.754266         0.074583         0.138943
 H        -0.158001         0.668754        -2.439648
 H        -0.331839         2.143947        -1.575128
 H         0.767104         2.161808        -3.815008
 H         3.443966         1.962879        -3.604051
 H         4.266605         0.559965        -1.659320
 H         3.860480         2.041141        -0.853187
 H         3.047720        -0.537404        -0.257864
