19
Iteration:  3678charge 0 multiplicity 1
 C         0.108613        -0.565268        -0.076975
 C         1.035489         0.586448        -0.641719
 C         0.412601         1.417576        -1.847344
 C         1.382015         1.933415        -2.895535
 O         2.068756         3.057591        -2.303346
 C         2.798105         1.940394        -2.722464
 C         3.565245         1.192914        -1.495263
 C         2.499273         0.425041        -0.587151
 O         1.791054         1.330243         0.301340
 H         0.105249        -1.360029        -0.851986
 H         0.523021        -0.956933         0.858152
 H        -0.889867        -0.232522         0.001401
 H        -0.472858         0.745625        -2.256032
 H        -0.214638         2.176562        -1.476951
 H         0.951991         2.154583        -3.932328
 H         3.316280         2.198495        -3.677965
 H         4.463966         0.682343        -1.882107
 H         3.923623         1.925212        -0.785505
 H         2.956772        -0.557936        -0.154235
