19
Iteration:  3676
 C         0.110629        -0.545457        -0.088649
 C         1.051494         0.586692        -0.663154
 C         0.414143         1.402475        -1.825582
 C         1.369500         1.939689        -2.883865
 O         2.063511         3.032384        -2.288220
 C         2.803046         1.943320        -2.701417
 C         3.570566         1.198836        -1.497148
 C         2.502786         0.411826        -0.597692
 O         1.786970         1.346456         0.276014
 H         0.134467        -1.353736        -0.833449
 H         0.544213        -0.971536         0.919018
 H        -0.950107        -0.203654        -0.015265
 H        -0.399602         0.676505        -2.303360
 H        -0.356280         2.259591        -1.414469
 H         1.007464         2.187673        -3.900437
 H         3.315120         2.118100        -3.685629
 H         4.457150         0.663935        -1.873931
 H         3.943526         1.944855        -0.827651
 H         2.867553        -0.485302        -0.167025
