19
Iteration:    96charge 0 multiplicity 1
 C         0.209167        -0.623332         0.001311
 C         0.998726         0.517470        -0.628960
 C         0.334369         1.605772        -1.539622
 C         1.263594         2.333225        -2.560745
 O         2.385165         3.289189        -2.397502
 C         2.636184         1.961454        -2.897870
 C         3.372931         1.097048        -1.797813
 C         2.436419         0.228492        -0.818798
 O         1.947338         0.972337         0.354217
 H         0.893931        -1.095123         0.597055
 H        -0.559667        -0.156808         0.661840
 H        -0.483783        -1.303895        -0.651707
 H        -0.437575         1.071856        -2.208080
 H        -0.288593         2.261020        -0.955944
 H         0.625972         2.571984        -3.397204
 H         3.056748         1.771251        -3.915136
 H         4.225919         0.415783        -2.178070
 H         3.839297         1.804661        -1.111317
 H         2.841345        -0.819754        -0.629168
