19
Iteration:  3477charge 0 multiplicity 1
 C         0.225717        -0.674284        -0.285430
 C         1.021683         0.549000        -0.719874
 C         0.423507         1.535410        -1.588669
 C         1.279159         1.990864        -2.692961
 O         2.159123         3.099887        -2.615208
 C         2.797318         1.791591        -2.712356
 C         3.552920         1.277904        -1.428269
 C         2.457745         0.588487        -0.568278
 O         1.704787         1.224820         0.405408
 H        -0.015022        -1.291325        -1.173797
 H         0.783757        -1.207810         0.431409
 H        -0.782460        -0.312675         0.110203
 H        -0.389764         0.969424        -2.229628
 H         0.079569         2.374930        -1.049502
 H         0.786504         1.752815        -3.623708
 H         3.362700         1.755091        -3.659583
 H         4.240865         0.476544        -1.664980
 H         4.086410         2.145511        -1.091755
 H         2.961775        -0.415708        -0.132452
