19
Iteration:  2028charge 0 multiplicity 1
 C         0.149864        -0.425682        -0.054154
 C         1.093386         0.594025        -0.694279
 C         0.409895         1.183972        -1.960572
 C         1.358552         1.936998        -2.764479
 O         1.994648         3.039805        -2.068309
 C         2.831139         1.945212        -2.602476
 C         3.505208         1.036060        -1.604857
 C         2.604311         0.495620        -0.593587
 O         1.718791         1.534159         0.101564
 H        -0.217069        -1.215284        -0.708057
 H         0.605988        -1.077009         0.738238
 H        -0.684072         0.219002         0.254109
 H         0.201348         0.188598        -2.579734
 H        -0.516347         1.662918        -1.657756
 H         0.944893         2.169064        -3.835988
 H         3.444617         2.237955        -3.510439
 H         3.973838         0.261371        -2.252219
 H         4.361671         1.527850        -1.126532
 H         3.072588        -0.195578         0.055889
