19
Iteration:  4883
 C         0.105836        -0.361877         0.126235
 C         1.069248         0.492503        -0.728688
 C         0.518373         1.069218        -1.967198
 C         1.429273         1.972794        -2.756375
 O         1.947371         3.102214        -2.039242
 C         2.892673         2.150947        -2.502265
 C         3.482346         1.040359        -1.740345
 C         2.490391         0.424697        -0.676439
 O         1.747385         1.413030         0.060243
 H        -0.412561        -1.073023        -0.635226
 H         0.540665        -0.736042         1.062230
 H        -0.629696         0.461353         0.197442
 H         0.245425         0.229274        -2.642032
 H        -0.533313         1.673021        -1.915413
 H         1.052890         2.029556        -3.874969
 H         3.560329         2.556732        -3.262565
 H         3.846820         0.207931        -2.516332
 H         4.361193         1.396171        -1.131318
 H         3.025850        -0.301347        -0.059263
