19
Iteration:   601charge 0 multiplicity 1
 C         0.134504        -0.496643        -0.069455
 C         1.078747         0.494108        -0.672264
 C         0.381054         1.358040        -1.676072
 C         1.249113         2.327908        -2.527173
 O         2.324890         3.157031        -2.002135
 C         2.597974         1.958057        -2.710689
 C         3.308852         0.865108        -2.003409
 C         2.576457         0.372682        -0.790574
 O         1.987187         1.312954         0.186577
 H        -0.678672         0.081335         0.391249
 H        -0.432300        -1.054557        -0.827783
 H         0.685221        -1.330022         0.744073
 H        -0.253608         0.766745        -2.373553
 H        -0.338259         1.979557        -1.023143
 H         0.647630         2.862368        -3.284195
 H         2.908496         2.212112        -3.784015
 H         3.240428        -0.004417        -2.750923
 H         4.372757         1.082618        -1.823142
 H         2.988726        -0.513526        -0.202799
