19
Iteration:  1849
 C         0.205714        -0.586083        -0.031018
 C         1.047620         0.543520        -0.759359
 C         0.333412         1.292697        -1.854775
 C         1.331803         1.981738        -2.829407
 O         2.181486         3.058477        -2.321953
 C         2.817247         1.902012        -2.691436
 C         3.529102         1.238076        -1.505320
 C         2.534630         0.509265        -0.547786
 O         1.665502         1.387475         0.217689
 H        -0.687697        -1.098275        -0.485563
 H         0.935038        -1.378646         0.447939
 H        -0.259248        -0.160796         0.894192
 H        -0.517333         0.519454        -2.236816
 H        -0.302743         2.054927        -1.383421
 H         1.101435         2.079810        -3.880673
 H         3.339510         2.040666        -3.575304
 H         4.334751         0.578619        -1.855487
 H         3.980797         2.117605        -1.014397
 H         2.964158        -0.313092        -0.009059
