19
Iteration:  4104charge 0 multiplicity 1
 C         0.148685        -0.726815        -0.294335
 C         0.972972         0.553787        -0.540154
 C         0.433632         1.553204        -1.678688
 C         1.385523         1.887541        -2.817757
 O         2.067556         3.177363        -2.757393
 C         2.802359         1.952866        -2.691328
 C         3.477115         1.289442        -1.473500
 C         2.518928         0.476837        -0.445043
 O         1.784281         1.203337         0.528945
 H        -0.030731        -1.266579        -1.277157
 H         0.679014        -1.432714         0.323130
 H        -0.707563        -0.466332         0.211687
 H        -0.485117         1.237421        -2.195615
 H         0.223746         2.510104        -1.153352
 H         1.009995         1.784068        -3.875855
 H         3.442689         1.947676        -3.559256
 H         3.996108         0.397412        -1.896290
 H         4.251702         1.823410        -0.893246
 H         3.150579        -0.317181        -0.127623
