19
Iteration:   452
 C         0.127144        -0.521221        -0.048616
 C         1.073105         0.540655        -0.674000
 C         0.345453         1.593745        -1.512078
 C         1.267565         2.219909        -2.675710
 O         2.126070         3.248303        -2.229628
 C         2.700654         2.012935        -2.752388
 C         3.386964         0.975706        -1.794596
 C         2.470454         0.235641        -0.817459
 O         2.117678         1.046078         0.239230
 H        -0.250353        -0.249948         1.094731
 H        -0.840775        -0.610321        -0.691124
 H         0.629367        -1.451662         0.107318
 H        -0.556785         1.229918        -2.084657
 H        -0.010605         2.429081        -0.890090
 H         0.537812         2.483294        -3.459085
 H         3.231088         2.117806        -3.744886
 H         3.707486         0.304951        -2.607868
 H         4.396104         1.271957        -1.402875
 H         2.849788        -0.777805        -0.563209
