19
Iteration:   584charge 0 multiplicity 1
 C         0.245543        -0.542617        -0.065032
 C         1.051501         0.602997        -0.635207
 C         0.321318         1.450184        -1.659124
 C         1.280125         2.281962        -2.517196
 O         2.336862         3.113234        -1.939831
 C         2.678410         2.015398        -2.814298
 C         3.190326         0.771831        -2.048869
 C         2.518736         0.434209        -0.768536
 O         1.981322         1.312704         0.232643
 H        -0.831881        -0.348702         0.270852
 H         0.132882        -1.310611        -0.853500
 H         0.792202        -0.970272         0.605004
 H        -0.098623         0.730478        -2.461175
 H        -0.683493         1.771579        -1.470326
 H         0.701678         2.777720        -3.312546
 H         3.185858         2.271059        -3.725244
 H         3.108115        -0.073366        -2.721562
 H         4.280855         0.791437        -1.888847
 H         2.941351        -0.463048        -0.398489
