19
Iteration:  2748charge 0 multiplicity 1
 C         0.073094        -0.600219        -0.203477
 C         1.051582         0.467754        -0.585739
 C         0.421006         1.434286        -1.662768
 C         1.298257         1.907793        -2.793679
 O         2.103184         3.085933        -2.504847
 C         2.806585         1.868667        -2.698214
 C         3.547544         1.356578        -1.503140
 C         2.581454         0.493324        -0.655014
 O         1.802759         1.269747         0.351455
 H        -0.009550        -1.431047        -0.940270
 H         0.135409        -0.878680         0.798339
 H        -0.910408        -0.095522        -0.349940
 H        -0.490851         0.819072        -2.115922
 H         0.075834         2.331591        -1.142262
 H         0.807843         1.912077        -3.771393
 H         3.405750         1.919226        -3.654990
 H         4.501173         0.885714        -1.540938
 H         3.670747         2.241416        -0.782020
 H         3.005321        -0.390209        -0.214367
