19
Iteration:  1487
 C         0.310348        -0.524453         0.103529
 C         0.971292         0.556726        -0.744216
 C         0.313801         1.298752        -1.919428
 C         1.314037         2.142970        -2.741359
 O         2.107110         3.152724        -2.048087
 C         2.845903         2.000722        -2.625715
 C         3.469117         0.869312        -1.727872
 C         2.456889         0.418671        -0.695696
 O         1.801977         1.405123         0.088010
 H         0.418123        -1.613683        -0.241822
 H         0.882489        -0.306840         1.025940
 H        -0.669712        -0.312012         0.412119
 H        -0.150815         0.505287        -2.519121
 H        -0.560251         2.000082        -1.562620
 H         0.843971         2.623077        -3.686121
 H         3.495596         2.372585        -3.542687
 H         3.710208        -0.030583        -2.384795
 H         4.450181         1.145966        -1.270918
 H         2.890940        -0.307398        -0.048480
