19
Iteration:  1571
 C         0.192236        -0.435495        -0.049043
 C         1.128951         0.534828        -0.600252
 C         0.428109         1.245333        -1.856891
 C         1.265000         2.124103        -2.835449
 O         2.094087         3.220981        -2.355535
 C         2.729374         2.026299        -2.717452
 C         3.354140         1.076412        -1.637351
 C         2.574137         0.337854        -0.579794
 O         1.890500         1.222661         0.399983
 H        -0.796359        -0.174531        -0.489028
 H         0.395217        -1.428579        -0.449659
 H        -0.180155        -0.273556         1.080856
 H        -0.017885         0.407532        -2.497689
 H        -0.364592         1.837057        -1.526732
 H         0.822495         2.286278        -3.814685
 H         3.426495         2.267907        -3.481016
 H         3.730929         0.262506        -2.230274
 H         4.206106         1.595637        -1.198626
 H         3.002536        -0.638227        -0.171510
