19
Iteration:   404
 C         0.247302        -0.600601        -0.177816
 C         1.082115         0.592944        -0.702839
 C         0.295734         1.596858        -1.543467
 C         1.183865         2.378682        -2.573036
 O         2.341339         3.076014        -2.200744
 C         2.579564         1.884309        -2.816207
 C         3.338893         0.923752        -1.888987
 C         2.519665         0.406298        -0.723460
 O         1.976623         1.152436         0.359918
 H         0.518465        -0.739307         0.832594
 H        -0.780071        -0.467936        -0.182363
 H         0.583690        -1.603550        -0.638791
 H        -0.498752         1.093714        -2.212115
 H        -0.239273         2.353993        -0.914578
 H         0.580814         2.702653        -3.353283
 H         2.897424         1.952220        -3.794103
 H         3.769138         0.056017        -2.449263
 H         4.197813         1.489873        -1.650959
 H         2.965829        -0.531833        -0.454219
