19
Iteration:  3171charge 0 multiplicity 1
 C         0.093662        -0.649474        -0.423624
 C         1.016687         0.602149        -0.589366
 C         0.432447         1.631429        -1.543811
 C         1.280711         1.814953        -2.764498
 O         2.132786         3.072227        -2.919089
 C         2.765230         1.892777        -2.625970
 C         3.509900         1.474101        -1.275911
 C         2.593897         0.552648        -0.534405
 O         1.817836         1.035452         0.521373
 H        -0.122531        -1.098715        -1.421883
 H         0.537508        -1.400724         0.194278
 H        -1.019914        -0.393206         0.007380
 H        -0.564563         1.245576        -1.747047
 H         0.340684         2.515390        -0.977930
 H         0.748207         1.571021        -3.701444
 H         3.537327         1.482750        -3.378146
 H         4.336741         0.791658        -1.669128
 H         3.812392         2.436548        -0.799581
 H         2.912771        -0.552078        -0.446503
