19
Iteration:  2844charge 0 multiplicity 1
 C         0.243534        -0.630371        -0.268751
 C         1.030383         0.519546        -0.675763
 C         0.368592         1.384994        -1.673650
 C         1.282645         2.037821        -2.719878
 O         2.145990         3.071950        -2.413418
 C         2.748506         1.842672        -2.701348
 C         3.489744         1.167849        -1.530542
 C         2.618117         0.514505        -0.465345
 O         1.719138         1.409378         0.229317
 H        -0.135431        -1.145736        -1.143416
 H         0.751182        -1.275993         0.491016
 H        -0.734843        -0.281404         0.178559
 H        -0.256750         0.786961        -2.266527
 H        -0.202793         2.015731        -1.060508
 H         0.801197         2.042625        -3.823887
 H         3.343122         1.844384        -3.715576
 H         4.368401         0.565469        -1.912723
 H         3.923510         2.030288        -1.050345
 H         2.957718        -0.176797         0.281636
