19
Iteration:  2755
 C         0.058123        -0.642373        -0.237632
 C         1.081116         0.510435        -0.644068
 C         0.382155         1.453530        -1.669878
 C         1.300250         1.873323        -2.750149
 O         2.097571         3.085284        -2.531501
 C         2.844981         1.897504        -2.726557
 C         3.469933         1.344414        -1.446156
 C         2.582400         0.485820        -0.591363
 O         1.835405         1.291065         0.351549
 H         0.131977        -1.502537        -0.848595
 H         0.233141        -1.046265         0.887831
 H        -0.922035        -0.168539        -0.276312
 H        -0.511935         1.094732        -2.159891
 H         0.119169         2.330963        -1.081254
 H         0.753727         2.049142        -3.790591
 H         3.397881         1.856158        -3.746482
 H         4.433847         0.710460        -1.698102
 H         3.793851         2.166428        -0.854592
 H         3.054208        -0.439086        -0.155883
