19
Iteration:   761charge 0 multiplicity 1
 C         0.373049        -0.659279        -0.233457
 C         1.015556         0.673327        -0.621726
 C         0.350482         1.709513        -1.506490
 C         1.236418         2.309512        -2.581235
 O         2.243253         3.219287        -2.131126
 C         2.603114         1.856939        -2.747216
 C         3.272354         0.766372        -1.941301
 C         2.444302         0.361754        -0.808341
 O         2.023073         1.179012         0.345466
 H        -0.734250        -0.444021         0.049761
 H         0.561278        -1.454315        -1.060303
 H         0.823051        -1.107985         0.609699
 H        -0.368455         1.102748        -2.192870
 H        -0.159325         2.459382        -0.891646
 H         0.716725         2.730290        -3.476496
 H         3.073620         1.968947        -3.694236
 H         3.191730        -0.084432        -2.647301
 H         4.356408         0.993740        -1.743399
 H         2.780327        -0.599119        -0.479652
