19
Iteration:  3426
 C         0.268714        -0.681905        -0.467212
 C         1.113195         0.653466        -0.588900
 C         0.422633         1.620963        -1.578099
 C         1.307800         2.028434        -2.786637
 O         2.092481         3.085555        -2.841098
 C         2.789340         1.776971        -2.717884
 C         3.383595         1.294513        -1.347339
 C         2.473017         0.500029        -0.463131
 O         1.750464         1.141279         0.624107
 H         0.050520        -1.049881        -1.476764
 H         0.885273        -1.406057         0.174195
 H        -0.700478        -0.476819        -0.069931
 H        -0.423739         1.209509        -1.978979
 H         0.250008         2.664560        -1.027034
 H         0.903044         1.571318        -3.799618
 H         3.414230         1.515229        -3.584375
 H         4.153821         0.518010        -1.729611
 H         4.002019         2.091740        -0.880883
 H         2.909517        -0.428013        -0.152365
