19
Iteration:  3371charge 0 multiplicity 1
 C         0.121898        -0.585818        -0.328164
 C         1.075541         0.556398        -0.694892
 C         0.599196         1.645974        -1.555377
 C         1.294398         1.864138        -2.853580
 O         2.121979         3.119597        -2.817266
 C         2.794750         1.760624        -2.715911
 C         3.245510         1.480719        -1.298923
 C         2.566963         0.378474        -0.503145
 O         1.832356         1.023251         0.519586
 H        -0.034692        -1.300925        -1.158940
 H         0.427538        -1.171392         0.590495
 H        -0.884915        -0.187514        -0.080125
 H        -0.399963         1.575042        -1.740872
 H         0.621144         2.711160        -1.116173
 H         0.847945         1.915462        -3.876291
 H         3.441226         1.576989        -3.570850
 H         4.372152         1.615077        -1.145597
 H         2.942476         2.440889        -0.856881
 H         3.058587        -0.536220        -0.279922
