19
Iteration:  1016charge 0 multiplicity 1
 C         0.106995        -0.421867        -0.112196
 C         1.078228         0.560616        -0.665510
 C         0.436169         1.599597        -1.548725
 C         1.183587         2.310369        -2.574538
 O         2.218459         3.223441        -2.273495
 C         2.531269         1.827099        -2.841549
 C         3.390441         1.096569        -1.773920
 C         2.536951         0.265325        -0.830485
 O         2.115645         0.899200         0.357769
 H        -0.658211         0.024490         0.462680
 H        -0.308582        -1.025482        -0.900122
 H         0.676002        -1.150526         0.649298
 H        -0.456463         1.033290        -2.104550
 H        -0.175710         2.370004        -1.014851
 H         0.596918         2.529756        -3.505711
 H         2.918380         1.859745        -3.829539
 H         4.184894         0.483566        -2.255229
 H         3.874500         1.989581        -1.265144
 H         2.890475        -0.789976        -0.805020
