19
Iteration:   722charge 0 multiplicity 1
 C         0.149060        -0.634577        -0.240250
 C         1.066959         0.517250        -0.606231
 C         0.418292         1.665203        -1.441195
 C         1.235131         2.317711        -2.521150
 O         2.271372         3.155883        -2.185673
 C         2.567978         1.815974        -2.809479
 C         3.385434         0.973330        -1.954091
 C         2.547111         0.425319        -0.822315
 O         1.972328         1.131715         0.308462
 H        -0.782872        -0.242815         0.081111
 H        -0.214585        -1.211644        -1.039161
 H         0.645927        -1.202786         0.677539
 H        -0.445752         1.226417        -1.867135
 H         0.101267         2.516098        -0.803752
 H         0.562511         2.633970        -3.345617
 H         2.878119         1.771116        -3.938646
 H         3.922838         0.136857        -2.408719
 H         4.179882         1.568011        -1.524926
 H         2.862891        -0.612439        -0.440805
