19
Iteration:  3950charge 0 multiplicity 1
 C         0.186228        -0.430273         0.073131
 C         0.967856         0.559813        -0.753029
 C         0.453193         1.006649        -2.098280
 C         1.257059         2.056039        -2.727847
 O         2.155207         3.062984        -1.986908
 C         2.806583         1.980811        -2.626141
 C         3.490130         1.045481        -1.643354
 C         2.458879         0.493673        -0.598948
 O         1.820675         1.553831         0.078694
 H        -0.064997        -1.340757        -0.643406
 H         0.726205        -0.678496         0.952222
 H        -0.872955        -0.145286         0.247507
 H         0.462640         0.137918        -2.708600
 H        -0.657126         1.382138        -2.015812
 H         0.825076         2.610865        -3.611786
 H         3.421784         2.326394        -3.489155
 H         3.915287         0.116637        -2.119223
 H         4.318282         1.528766        -1.060781
 H         2.908622        -0.195868         0.089847
