19
Iteration:   277
 C         0.113289        -0.380653         0.047681
 C         1.112556         0.569487        -0.658659
 C         0.425752         1.330138        -1.772068
 C         1.246298         2.313969        -2.644572
 O         2.093997         3.186385        -1.979499
 C         2.762391         2.077019        -2.705793
 C         3.282955         0.833399        -1.973410
 C         2.493924         0.238288        -0.869984
 O         2.108880         1.193221         0.265612
 H         0.565262        -1.007388         0.881769
 H        -0.579381         0.275509         0.535666
 H        -0.429877        -0.937606        -0.557699
 H         0.070317         0.586418        -2.428783
 H        -0.462173         1.828687        -1.367185
 H         0.692789         2.673837        -3.600116
 H         3.106985         2.551603        -3.658667
 H         3.470380         0.052447        -2.717522
 H         4.340668         1.042244        -1.593278
 H         2.782521        -0.768969        -0.526930
