19
Iteration:  1359
 C         0.148120        -0.502428        -0.064023
 C         1.048943         0.494698        -0.690851
 C         0.383874         1.464770        -1.720481
 C         1.265429         2.148647        -2.699879
 O         2.151859         3.229731        -2.376503
 C         2.727432         1.964792        -2.734058
 C         3.440378         1.037095        -1.666755
 C         2.484013         0.312020        -0.697196
 O         1.945060         1.195892         0.353828
 H         0.320319        -0.223163         1.067350
 H        -0.964834        -0.550153        -0.564133
 H         0.562208        -1.503415        -0.064537
 H        -0.388942         0.874688        -2.295301
 H         0.016553         2.271168        -1.107902
 H         0.771922         2.240165        -3.614603
 H         3.162623         1.974889        -3.732666
 H         3.950332         0.305475        -2.238255
 H         4.088347         1.519973        -0.946657
 H         2.993679        -0.603850        -0.251808
