19
Iteration:  1547charge 0 multiplicity 1
 C        -0.001668        -0.436101        -0.057541
 C         1.059972         0.524047        -0.646638
 C         0.497842         1.233056        -1.847150
 C         1.296050         2.096488        -2.708925
 O         2.051904         3.150691        -2.212255
 C         2.748743         1.947867        -2.750262
 C         3.483791         1.112747        -1.765490
 C         2.563090         0.436982        -0.655472
 O         1.941493         1.292897         0.386282
 H        -0.983930        -0.517749        -0.514315
 H         0.448012        -1.551762        -0.003106
 H        -0.280988         0.098474         0.974222
 H         0.388049         0.356817        -2.547399
 H        -0.511877         1.689442        -1.817893
 H         0.820022         2.238790        -3.621436
 H         3.257644         2.267291        -3.558021
 H         3.879278         0.298712        -2.376541
 H         4.312037         1.674468        -1.294680
 H         3.044224        -0.480152        -0.226125
