19
Iteration:   780charge 0 multiplicity 1
 C         0.158157        -0.603072        -0.126804
 C         1.074990         0.539668        -0.629618
 C         0.366280         1.520288        -1.544696
 C         1.212510         2.331057        -2.565232
 O         2.271227         3.214347        -2.105615
 C         2.698198         2.022743        -2.780551
 C         3.290535         0.816972        -2.049262
 C         2.567039         0.312946        -0.753404
 O         1.982492         1.215083         0.296126
 H        -0.849098        -0.197525         0.305562
 H         0.201440        -1.428236        -0.913563
 H         0.584905        -1.111485         0.701509
 H        -0.420543         1.125450        -2.038080
 H        -0.159413         2.288341        -0.922986
 H         0.615636         2.705190        -3.389895
 H         2.999370         2.158121        -3.767803
 H         3.307650        -0.020871        -2.800006
 H         4.316716         1.082592        -1.804897
 H         2.981419        -0.606560        -0.401263
