19
Iteration:  1036charge 0 multiplicity 1
 C         0.153452        -0.536988        -0.015528
 C         1.015241         0.506255        -0.658899
 C         0.299246         1.644957        -1.476417
 C         1.201203         2.263849        -2.658625
 O         2.306703         3.202198        -2.351336
 C         2.667342         1.966650        -2.811857
 C         3.383261         1.123642        -1.740410
 C         2.496286         0.209096        -0.904357
 O         2.061387         0.957993         0.304626
 H        -0.102722        -0.098820         0.890983
 H        -0.654932        -0.754183        -0.646651
 H         0.650586        -1.524220         0.328440
 H        -0.610210         1.113107        -2.111068
 H        -0.255103         2.360381        -0.724482
 H         0.570414         2.640335        -3.513817
 H         3.071164         1.950975        -3.752680
 H         4.209527         0.628356        -2.225844
 H         3.813710         1.871365        -1.070173
 H         2.877626        -0.740976        -0.626916
