19
Iteration:  2475
 C         0.292968        -0.692283        -0.184695
 C         1.058679         0.579197        -0.614934
 C         0.446718         1.437050        -1.753978
 C         1.312665         1.952543        -2.828149
 O         2.113610         3.106863        -2.427500
 C         2.835588         1.896424        -2.698647
 C         3.434597         1.080721        -1.509583
 C         2.482253         0.562430        -0.507960
 O         1.661454         1.449306         0.306115
 H        -0.294301        -1.052954        -1.088903
 H         0.961790        -1.616624         0.066200
 H        -0.411780        -0.546316         0.661183
 H        -0.314934         0.906723        -2.239963
 H        -0.099063         2.340571        -1.275418
 H         1.030338         2.031721        -3.864392
 H         3.426435         1.950832        -3.630451
 H         3.699023         0.130088        -2.041331
 H         4.311483         1.597816        -1.002879
 H         2.959446        -0.274829         0.145440
