19
Iteration:   858charge 0 multiplicity 1
 C         0.210455        -0.317336         0.182927
 C         1.018221         0.567812        -0.727150
 C         0.376294         1.371503        -1.833438
 C         1.303308         2.221767        -2.705602
 O         2.004498         3.205249        -1.844219
 C         2.728124         2.168630        -2.616659
 C         3.361836         0.785797        -2.021207
 C         2.470980         0.152916        -0.913309
 O         2.133745         1.140167         0.142492
 H        -0.137547         0.336175         1.093563
 H        -0.843736        -0.621729        -0.261989
 H         0.804767        -1.158440         0.350087
 H        -0.274899         0.656988        -2.407086
 H        -0.209163         2.283951        -1.453884
 H         0.748025         2.498445        -3.589265
 H         3.376113         2.637801        -3.265712
 H         3.563095         0.189492        -2.941743
 H         4.303665         1.102088        -1.576173
 H         2.871167        -0.721138        -0.486825
