19
Iteration:  4339
 C         0.149074        -0.270487        -0.115391
 C         1.150581         0.614212        -0.731142
 C         0.541875         1.057215        -2.047954
 C         1.266622         2.040283        -2.758863
 O         1.954977         2.991025        -1.954278
 C         2.727404         2.014742        -2.621961
 C         3.454975         0.939214        -1.635859
 C         2.613323         0.432469        -0.541294
 O         1.796942         1.476850         0.133495
 H        -0.012533        -1.016918        -0.859811
 H         0.422856        -0.575860         0.819359
 H        -0.761390         0.421902         0.009041
 H         0.285754         0.181492        -2.488638
 H        -0.583279         1.414468        -1.760452
 H         0.903327         2.295581        -3.765593
 H         3.442440         2.549831        -3.292340
 H         3.827639         0.170939        -2.420284
 H         4.375416         1.455307        -1.100643
 H         3.254361        -0.165991         0.041744
