19
Iteration:  3180charge 0 multiplicity 1
 C         0.069432        -0.685391        -0.393650
 C         1.006701         0.509276        -0.573539
 C         0.519295         1.678022        -1.449124
 C         1.306681         1.843164        -2.783265
 O         2.125199         3.081258        -2.943706
 C         2.831684         1.853234        -2.693611
 C         3.474742         1.516601        -1.307549
 C         2.545057         0.530036        -0.560460
 O         1.758654         1.020991         0.542830
 H         0.017382        -1.299532        -1.280305
 H         0.394667        -1.409830         0.397363
 H        -0.912711        -0.182112        -0.118007
 H        -0.455856         1.408984        -1.967263
 H         0.342177         2.559708        -0.950458
 H         0.734462         1.688920        -3.695514
 H         3.377383         1.799596        -3.698539
 H         4.423480         1.014047        -1.626726
 H         3.803961         2.461813        -0.707802
 H         3.125962        -0.479677        -0.199535
