19
Iteration:   892charge 0 multiplicity 1
 C         0.118687        -0.373992         0.017441
 C         1.099399         0.461294        -0.723696
 C         0.403259         1.321169        -1.752329
 C         1.203848         2.240722        -2.538378
 O         2.241731         3.207453        -1.893991
 C         2.626520         2.076907        -2.720693
 C         3.263294         0.841795        -2.045054
 C         2.559928         0.297059        -0.814575
 O         2.079149         1.241465         0.162161
 H        -0.266140         0.240328         0.898197
 H        -0.716185        -0.763662        -0.642094
 H         0.598460        -1.210426         0.620433
 H        -0.212110         0.729772        -2.516578
 H        -0.407130         1.901346        -1.172237
 H         0.695433         2.695153        -3.410049
 H         3.157872         2.380414        -3.540989
 H         3.394850         0.016221        -2.793987
 H         4.307922         1.134837        -1.777555
 H         3.064559        -0.536886        -0.407362
