19
Iteration:  1608charge 0 multiplicity 1
 C         0.273862        -0.613998        -0.035639
 C         1.002681         0.537906        -0.660520
 C         0.303758         1.427423        -1.716668
 C         1.319715         1.962748        -2.724227
 O         2.128621         3.120291        -2.289586
 C         2.842912         1.912291        -2.696250
 C         3.510187         1.133196        -1.616260
 C         2.493544         0.436689        -0.698685
 O         1.743472         1.380293         0.192055
 H        -0.737971        -0.255053         0.208650
 H         0.088662        -1.372108        -0.737304
 H         0.800497        -1.087683         0.669405
 H        -0.558216         1.011044        -2.214882
 H        -0.081595         2.332757        -1.190493
 H         0.835088         2.121814        -3.778720
 H         3.524167         2.148279        -3.658012
 H         4.126675         0.379670        -2.168751
 H         4.231709         1.721204        -1.016636
 H         2.891165        -0.414318        -0.162988
