19
Iteration:  1760charge 0 multiplicity 1
 C         0.119955        -0.463913         0.088251
 C         1.045317         0.546464        -0.617651
 C         0.484157         1.031201        -1.979095
 C         1.356943         2.036297        -2.806651
 O         2.057024         3.142345        -2.174143
 C         2.847040         2.070985        -2.669304
 C         3.460922         1.069577        -1.693693
 C         2.544527         0.485453        -0.587954
 O         1.771537         1.445744         0.207507
 H         0.360551        -1.512933        -0.262170
 H        -0.111306        -0.170611         1.065094
 H        -0.925932        -0.492731        -0.422870
 H         0.210671         0.163258        -2.730179
 H        -0.496339         1.449721        -1.740894
 H         0.940637         2.281199        -3.775743
 H         3.360960         2.278029        -3.532756
 H         3.753667         0.189210        -2.279338
 H         4.338192         1.444063        -1.164619
 H         3.043070        -0.192019         0.120282
