19
Iteration:   895
 C         0.111698        -0.373042         0.001168
 C         1.114289         0.477105        -0.698993
 C         0.384858         1.315242        -1.754830
 C         1.200230         2.235925        -2.526597
 O         2.268657         3.215033        -1.885111
 C         2.611943         2.065114        -2.758979
 C         3.255161         0.842207        -2.053897
 C         2.557005         0.299426        -0.806835
 O         2.069254         1.245103         0.160853
 H        -0.267746         0.164163         0.812938
 H        -0.596006        -0.825051        -0.634746
 H         0.627436        -1.257616         0.632591
 H        -0.154055         0.822497        -2.431679
 H        -0.354778         1.803416        -1.207865
 H         0.670501         2.767724        -3.384676
 H         3.121373         2.445185        -3.668840
 H         3.471477        -0.051485        -2.687063
 H         4.282820         1.194819        -1.665555
 H         3.019850        -0.619160        -0.369207
