19
Iteration:  2435
 C         0.162440        -0.494090        -0.111318
 C         1.096013         0.613683        -0.695003
 C         0.408243         1.349421        -1.826559
 C         1.330182         1.982935        -2.827037
 O         2.061358         3.054793        -2.373547
 C         2.813691         1.827895        -2.697907
 C         3.513080         1.260860        -1.460862
 C         2.611710         0.464778        -0.566153
 O         1.697013         1.305003         0.329161
 H        -0.492014        -0.730499        -0.985813
 H         0.636273        -1.382306         0.105895
 H        -0.270389        -0.126655         0.824788
 H        -0.181635         0.511934        -2.398123
 H        -0.408043         2.017940        -1.485714
 H         0.767945         2.130979        -3.845016
 H         3.328164         1.822661        -3.659696
 H         4.328416         0.584757        -1.819206
 H         4.033381         2.053642        -0.938958
 H         2.934674        -0.555250        -0.255471
