19
Iteration:  2166
 C         0.338799        -0.727142        -0.032576
 C         0.925234         0.579503        -0.640130
 C         0.379726         1.318215        -1.851453
 C         1.365094         2.122368        -2.772980
 O         2.277828         3.207794        -2.396646
 C         2.800554         1.811788        -2.727302
 C         3.415061         1.117806        -1.570165
 C         2.410689         0.554855        -0.538711
 O         1.682407         1.379320         0.273943
 H         0.446539        -1.547254        -0.650816
 H         0.875824        -1.037902         0.870176
 H        -0.715492        -0.639638         0.020583
 H        -0.318611         0.792715        -2.394576
 H        -0.226198         2.184761        -1.404472
 H         0.978991         2.248260        -3.720315
 H         3.247412         1.772208        -3.711244
 H         4.092369         0.299802        -1.784198
 H         3.967081         1.853165        -0.951323
 H         2.701823        -0.489280        -0.101940
