19
Iteration:    53
 C         0.203587        -0.521726        -0.234455
 C         1.137356         0.569714        -0.660250
 C         0.301323         1.627838        -1.466145
 C         1.229879         2.209934        -2.603320
 O         2.224735         3.159858        -2.213947
 C         2.641494         1.943954        -2.792357
 C         3.350343         0.850257        -1.938772
 C         2.570401         0.326748        -0.697395
 O         1.976784         1.196417         0.360199
 H         0.601957        -0.983123         0.560004
 H        -0.852632        -0.245203        -0.086906
 H         0.108610        -1.266362        -1.133578
 H        -0.660434         1.147990        -1.815967
 H        -0.055529         2.367633        -0.803423
 H         0.622579         2.487273        -3.451002
 H         3.007657         2.104757        -3.875496
 H         3.682945         0.006218        -2.653911
 H         4.205259         1.378385        -1.542524
 H         2.951789        -0.629202        -0.203777
