19
Iteration:  1713
 C         0.226915        -0.387034         0.045262
 C         1.074914         0.527451        -0.795167
 C         0.360420         1.208888        -1.918410
 C         1.344523         1.980756        -2.818817
 O         2.022508         3.064131        -2.137755
 C         2.819841         1.949147        -2.621425
 C         3.504004         1.123339        -1.544809
 C         2.575676         0.421694        -0.626896
 O         1.737335         1.411166         0.122418
 H         0.921993        -1.051951         0.585552
 H        -0.442022         0.304840         0.506929
 H        -0.299977        -1.245422        -0.502733
 H        -0.325677         0.426249        -2.386770
 H        -0.355785         2.059214        -1.585197
 H         0.925624         2.333221        -3.678666
 H         3.430850         2.266559        -3.361743
 H         4.021741         0.370240        -2.178252
 H         4.249176         1.752520        -1.027248
 H         2.873828        -0.561980        -0.153231
