19
Iteration:  3671
 C         0.124528        -0.505166        -0.104014
 C         1.060642         0.587395        -0.708120
 C         0.384128         1.369603        -1.790805
 C         1.329182         1.950910        -2.844021
 O         2.055939         3.007008        -2.259699
 C         2.837585         1.929363        -2.656884
 C         3.555368         1.206576        -1.511179
 C         2.521604         0.415746        -0.631795
 O         1.783877         1.372308         0.233708
 H         0.167212        -1.366633        -0.796512
 H         0.470871        -0.879576         0.830394
 H        -0.927542        -0.174639        -0.015156
 H        -0.137832         0.641659        -2.349434
 H        -0.323750         2.165187        -1.406202
 H         1.041304         2.207629        -3.865635
 H         3.367695         1.954548        -3.611258
 H         4.387055         0.569363        -1.855854
 H         4.000002         2.038603        -0.882244
 H         2.796545        -0.530383        -0.058880
