19
Iteration:  2564
 C         0.087590        -0.373697        -0.028432
 C         1.107011         0.591004        -0.775313
 C         0.381074         1.263169        -1.880411
 C         1.316724         1.913235        -2.843005
 O         2.008451         3.080531        -2.199588
 C         2.795876         1.986785        -2.558841
 C         3.451514         1.109443        -1.579434
 C         2.636876         0.447262        -0.607574
 O         1.838357         1.333873         0.192617
 H         0.286242        -1.549724        -0.313864
 H         0.297038        -0.233198         1.020612
 H        -1.002180        -0.344849        -0.368017
 H        -0.096856         0.493945        -2.393396
 H        -0.386207         1.983266        -1.372345
 H         1.120552         1.903981        -3.946794
 H         3.467106         2.448479        -3.297661
 H         4.060559         0.320593        -2.127991
 H         4.332785         1.722912        -1.151035
 H         3.084929        -0.471356        -0.050077
