19
Iteration:  2002charge 0 multiplicity 1
 C         0.234212        -0.536764        -0.123504
 C         1.059875         0.610588        -0.694989
 C         0.478716         1.209889        -2.014605
 C         1.340902         2.000663        -2.866385
 O         2.052924         3.114767        -2.223510
 C         2.811781         1.983125        -2.702318
 C         3.352328         0.951693        -1.626258
 C         2.552316         0.579758        -0.383319
 O         1.756674         1.493777         0.373068
 H         0.187160        -1.441112        -0.732829
 H         0.821142        -1.003739         0.784047
 H        -0.776397        -0.203053         0.107112
 H         0.113010         0.349043        -2.573216
 H        -0.413601         1.769083        -1.671987
 H         0.955083         2.225518        -3.785377
 H         3.384919         2.135435        -3.553089
 H         3.550170         0.007491        -2.176092
 H         4.353946         1.343435        -1.346763
 H         2.942124        -0.342303         0.111776
