19
Iteration:  4236
 C         0.189116        -0.639514        -0.297276
 C         1.057634         0.614562        -0.598700
 C         0.467402         1.338697        -1.766886
 C         1.319231         1.915460        -2.765175
 O         2.117768         3.058941        -2.299909
 C         2.816175         1.844758        -2.737362
 C         3.492518         1.112067        -1.571767
 C         2.533059         0.579423        -0.563734
 O         1.658729         1.474717         0.350863
 H        -0.030950        -1.132815        -1.286937
 H         0.750150        -1.290677         0.464830
 H        -0.721557        -0.346207         0.069952
 H        -0.280294         0.648412        -2.180460
 H        -0.145418         2.160746        -1.357022
 H         0.881507         2.302755        -3.721474
 H         3.382219         1.962959        -3.640156
 H         4.242056         0.465509        -2.013430
 H         4.079606         1.870628        -0.990609
 H         2.949376        -0.213658         0.067604
