19
Iteration:  2792charge 0 multiplicity 1
 C         0.426328        -0.698911        -0.239360
 C         1.054654         0.680936        -0.633673
 C         0.400103         1.529615        -1.707696
 C         1.322156         2.004795        -2.830900
 O         2.122835         3.162356        -2.628765
 C         2.776486         1.880351        -2.749572
 C         3.459949         1.082522        -1.497243
 C         2.532196         0.491993        -0.524480
 O         1.577548         1.267336         0.577215
 H         0.227690        -1.284661        -1.207871
 H         0.929536        -1.178101         0.530962
 H        -0.647798        -0.595469         0.106458
 H        -0.594570         0.922117        -2.120376
 H         0.053543         2.441606        -1.205994
 H         0.744824         2.126799        -3.770423
 H         3.416872         1.681854        -3.667159
 H         3.950532         0.240281        -1.978759
 H         4.325708         1.713434        -0.987200
 H         2.755798        -0.442820        -0.066054
