19
Iteration:   448
 C         0.092541        -0.550485        -0.049376
 C         1.067829         0.498496        -0.663494
 C         0.362463         1.599769        -1.497342
 C         1.247455         2.212554        -2.654370
 O         2.152723         3.238319        -2.237051
 C         2.708395         2.019772        -2.748047
 C         3.394718         0.989710        -1.825276
 C         2.447947         0.245432        -0.821249
 O         2.115060         1.097753         0.228895
 H        -0.148309        -0.282371         0.927374
 H        -0.782343        -0.642797        -0.574806
 H         0.597618        -1.572172         0.018826
 H        -0.624806         1.298987        -2.027734
 H         0.017922         2.412637        -0.807820
 H         0.651942         2.464492        -3.529844
 H         3.169726         2.094603        -3.675691
 H         3.796941         0.304076        -2.625332
 H         4.337070         1.198102        -1.346438
 H         2.891528        -0.688149        -0.505378
