19
Iteration:  2763charge 0 multiplicity 1
 C         0.100198        -0.661773        -0.238522
 C         1.084029         0.560730        -0.731180
 C         0.373112         1.479148        -1.653825
 C         1.347724         1.903514        -2.764902
 O         2.087189         3.100734        -2.563661
 C         2.826964         1.908171        -2.751178
 C         3.411364         1.298448        -1.416295
 C         2.550211         0.472917        -0.486551
 O         1.848677         1.285398         0.363934
 H         0.305643        -1.536848        -0.915577
 H         0.419731        -1.079570         0.750951
 H        -0.966198        -0.440180        -0.170080
 H        -0.524974         1.182586        -2.058557
 H         0.073218         2.388380        -1.042843
 H         0.889868         1.910647        -3.721686
 H         3.362784         1.723779        -3.607338
 H         4.109268         0.633723        -1.938899
 H         3.986757         2.067768        -0.924113
 H         3.084012        -0.412921        -0.060080
