19
Iteration:  4402
 C         0.219130        -0.607110         0.054660
 C         1.019009         0.502182        -0.719559
 C         0.454415         1.246988        -1.924146
 C         1.405594         2.058547        -2.779975
 O         2.129056         3.252910        -2.356917
 C         2.873325         1.978694        -2.681659
 C         3.400851         1.115939        -1.547939
 C         2.472419         0.444870        -0.589133
 O         1.676217         1.343833         0.261237
 H        -0.496428        -1.260282        -0.527203
 H         0.905434        -1.286179         0.631238
 H        -0.396177        -0.148868         0.845451
 H        -0.132903         0.592629        -2.698103
 H        -0.236374         2.023228        -1.681673
 H         0.949602         2.162060        -3.813743
 H         3.569424         2.184216        -3.502103
 H         3.881793         0.264353        -1.985261
 H         4.162550         1.566685        -0.932140
 H         2.805131        -0.369583         0.055119
