19
Iteration:   651
 C         0.204293        -0.399541         0.086220
 C         1.031298         0.648743        -0.658012
 C         0.283851         1.542263        -1.673650
 C         1.265326         2.148062        -2.726286
 O         2.138036         3.200553        -2.146298
 C         2.753559         2.079845        -2.667032
 C         3.411698         1.001597        -1.806147
 C         2.417662         0.239839        -1.022207
 O         2.114430         0.917046         0.280236
 H        -0.320207         0.120213         0.910615
 H        -0.714429        -0.716911        -0.473256
 H         0.741008        -1.136319         0.407357
 H        -0.614776         0.852672        -2.132472
 H        -0.183434         2.388246        -1.112501
 H         0.773378         2.281782        -3.697799
 H         3.234074         2.358310        -3.589200
 H         4.053918         0.288715        -2.313866
 H         4.058358         1.487224        -1.033469
 H         2.570356        -0.794725        -0.889729
