19
Iteration:  3334charge 0 multiplicity 1
 C         0.115705        -0.681024        -0.399309
 C         1.018864         0.630403        -0.618284
 C         0.436292         1.681526        -1.543237
 C         1.350681         1.960392        -2.725681
 O         2.184031         3.055155        -3.009136
 C         2.799502         1.729127        -2.698207
 C         3.430973         1.581681        -1.266884
 C         2.487380         0.602296        -0.530215
 O         1.830238         0.898895         0.616785
 H        -0.320826        -1.077456        -1.268803
 H         0.716851        -1.321332         0.129066
 H        -0.719227        -0.428645         0.245206
 H        -0.442972         1.060855        -2.002582
 H         0.071761         2.529096        -1.085363
 H         0.695732         1.602796        -3.491965
 H         3.348574         1.384474        -3.584458
 H         4.367952         1.077564        -1.355753
 H         3.526210         2.525087        -0.716608
 H         2.897448        -0.529819        -0.605137
