19
Iteration:  1872
 C         0.172875        -0.547205        -0.011207
 C         1.094115         0.457657        -0.690303
 C         0.497288         1.326680        -1.834141
 C         1.404275         2.008055        -2.825963
 O         2.049844         3.221707        -2.556055
 C         2.831428         1.945914        -2.681871
 C         3.389414         1.139526        -1.477202
 C         2.533537         0.484010        -0.504793
 O         1.707341         1.292669         0.362319
 H        -0.454472        -0.841034        -0.834091
 H         0.705767        -1.546376         0.438547
 H        -0.527367        -0.215782         0.740174
 H        -0.206320         0.629756        -2.560755
 H        -0.239844         2.012156        -1.452606
 H         0.908836         2.065709        -3.860163
 H         3.467765         2.075193        -3.524392
 H         4.032711         0.373316        -1.888818
 H         4.050595         1.861726        -0.988138
 H         3.106000        -0.267032        -0.055311
