19
Iteration:  4580charge 0 multiplicity 1
 C         0.157901        -0.762203        -0.307100
 C         1.047581         0.553963        -0.643169
 C         0.479688         1.717393        -1.605409
 C         1.299160         1.934109        -2.835088
 O         2.126942         3.115247        -2.868855
 C         2.792361         1.912702        -2.686880
 C         3.406189         1.386331        -1.369980
 C         2.501536         0.497271        -0.491028
 O         1.806397         1.055974         0.594910
 H         0.367348        -1.539380        -1.076744
 H         0.310200        -1.363503         0.586501
 H        -1.015487        -0.387801        -0.498684
 H        -0.612665         1.613054        -1.916404
 H         0.561788         2.562413        -0.915040
 H         0.850122         1.545338        -3.727785
 H         3.409821         1.716568        -3.665567
 H         4.161328         0.616018        -1.543903
 H         3.873610         2.219072        -0.788466
 H         2.983601        -0.450602        -0.200936
