19
Iteration:  2102charge 0 multiplicity 1
 C         0.129452        -0.543475        -0.064615
 C         1.061758         0.562987        -0.608944
 C         0.442464         1.185190        -1.955433
 C         1.388953         2.038490        -2.855196
 O         2.006028         3.103664        -2.279144
 C         2.846316         2.056042        -2.630429
 C         3.418226         1.026748        -1.604149
 C         2.511577         0.498450        -0.522961
 O         1.839767         1.459409         0.291207
 H        -0.229855        -1.078977        -0.933359
 H         0.428033        -1.355914         0.842762
 H        -0.730175         0.040739         0.224566
 H         0.200926         0.292612        -2.503978
 H        -0.481231         1.691890        -1.712786
 H         1.091400         2.025573        -3.856955
 H         3.542435         2.191012        -3.375280
 H         3.910760         0.330827        -2.300978
 H         4.291595         1.510408        -1.114157
 H         2.893049        -0.390239         0.054696
