19
Iteration:  1380
 C         0.250369        -0.543890         0.129666
 C         0.986417         0.565241        -0.673376
 C         0.314025         1.550431        -1.732713
 C         1.328772         2.076576        -2.800784
 O         2.139687         3.230159        -2.325569
 C         2.805236         1.924439        -2.658370
 C         3.434726         1.087497        -1.629989
 C         2.471490         0.337348        -0.797306
 O         1.865269         1.126729         0.196745
 H         0.847387        -0.774627         1.101155
 H        -0.945930        -0.367645         0.078065
 H         0.345030        -1.525490        -0.263016
 H        -0.452010         0.964157        -2.216018
 H        -0.095880         2.460418        -1.249656
 H         0.942714         2.221487        -3.785119
 H         3.486377         2.163646        -3.380117
 H         3.929914         0.298887        -2.143197
 H         4.065842         1.715540        -1.017119
 H         2.742185        -0.689555        -0.503736
