19
Iteration:   176charge 0 multiplicity 1
 C         0.106674        -0.551321        -0.072609
 C         1.070180         0.512529        -0.700379
 C         0.420181         1.571109        -1.576506
 C         1.280031         2.213944        -2.618017
 O         2.224760         3.325817        -2.208077
 C         2.662656         1.945061        -2.809023
 C         3.322700         0.932147        -1.883996
 C         2.577916         0.315902        -0.716764
 O         1.972935         1.088767         0.300779
 H         0.676277        -1.174607         0.643383
 H        -0.658770        -0.063746         0.464270
 H        -0.294107        -1.203135        -0.764519
 H        -0.395252         1.121194        -2.099209
 H        -0.037729         2.274050        -0.922527
 H         0.635709         2.492886        -3.436589
 H         2.964496         2.042319        -3.844710
 H         3.592346         0.009867        -2.453712
 H         4.241478         1.422750        -1.501894
 H         2.877471        -0.676239        -0.424537
