19
Iteration:  2310
 C         0.197711        -0.613295         0.002817
 C         1.010666         0.509990        -0.721303
 C         0.481286         1.180122        -1.919618
 C         1.381359         2.067900        -2.733923
 O         2.188312         3.122182        -2.169651
 C         2.878496         1.955229        -2.701397
 C         3.392182         0.973848        -1.683502
 C         2.455274         0.681096        -0.535743
 O         1.655338         1.507657         0.194504
 H         0.335062        -1.480491        -0.592602
 H         0.853934        -0.803763         0.941975
 H        -0.823055        -0.361187         0.183080
 H         0.196401         0.439983        -2.653767
 H        -0.626332         1.630787        -1.709338
 H         0.914941         2.490629        -3.608254
 H         3.318735         2.126597        -3.686477
 H         3.411183        -0.072187        -2.096462
 H         4.439145         1.163059        -1.298623
 H         2.952088        -0.106613         0.249016
