19
Iteration:  1548
 C        -0.001513        -0.438955        -0.065853
 C         1.060281         0.528871        -0.645538
 C         0.498707         1.233005        -1.844888
 C         1.300184         2.094173        -2.717845
 O         2.051835         3.159514        -2.215963
 C         2.738174         1.951623        -2.749156
 C         3.480941         1.109930        -1.767134
 C         2.564382         0.438558        -0.649027
 O         1.943292         1.285403         0.392965
 H        -0.987261        -0.517691        -0.494235
 H         0.431322        -1.487101        -0.016394
 H        -0.269582         0.088195         0.988878
 H         0.406180         0.332332        -2.539245
 H        -0.461438         1.675440        -1.814032
 H         0.797130         2.241030        -3.624024
 H         3.264293         2.228062        -3.581894
 H         3.886543         0.308340        -2.363610
 H         4.300660         1.647346        -1.280569
 H         3.056558        -0.487973        -0.212513
