19
Iteration:  1450
 C         0.115292        -0.508007        -0.123011
 C         1.091836         0.552113        -0.616787
 C         0.468439         1.211534        -1.798912
 C         1.240499         2.176745        -2.694219
 O         2.157329         3.125663        -2.122908
 C         2.735530         1.943539        -2.810044
 C         3.395937         0.938213        -1.823730
 C         2.572049         0.525429        -0.568900
 O         1.880141         1.400654         0.305089
 H         0.402863        -1.513007        -0.213337
 H        -0.140804        -0.163505         0.854061
 H        -0.971275        -0.474655        -0.593986
 H         0.228293         0.411952        -2.614333
 H        -0.509998         1.565058        -1.555475
 H         0.618482         2.575838        -3.507338
 H         3.438655         2.261738        -3.668855
 H         3.533394        -0.023605        -2.303069
 H         4.358747         1.353759        -1.508515
 H         3.050990        -0.332534         0.045273
