19
Iteration:  2956charge 0 multiplicity 1
 C         0.218476        -0.454206        -0.003378
 C         1.086445         0.528657        -0.744652
 C         0.412560         1.100228        -2.031478
 C         1.338606         2.027427        -2.817757
 O         2.087780         2.955769        -1.904885
 C         2.810229         1.976665        -2.653997
 C         3.481227         0.994298        -1.734689
 C         2.525589         0.604831        -0.578548
 O         1.689512         1.589321         0.140253
 H        -0.216408        -1.219013        -0.712895
 H         0.803265        -0.837099         0.754650
 H        -0.653097        -0.035712         0.502483
 H         0.215414         0.280303        -2.659028
 H        -0.538474         1.502212        -1.804150
 H         0.722042         2.461354        -3.692185
 H         3.566083         2.374372        -3.405943
 H         3.918780         0.094987        -2.215840
 H         4.244724         1.520100        -1.231850
 H         3.055608        -0.043652         0.090843
