19
Iteration:  4306charge 0 multiplicity 1
 C         0.085120        -0.532088         0.091454
 C         0.976022         0.513650        -0.692510
 C         0.518653         1.083287        -2.013577
 C         1.386987         2.050156        -2.838811
 O         2.041185         3.157962        -2.100551
 C         2.882538         2.101879        -2.557636
 C         3.371096         1.014029        -1.751053
 C         2.539835         0.470275        -0.616347
 O         1.826844         1.467517         0.224333
 H         0.078370        -1.526544        -0.322039
 H         0.397811        -0.403867         1.072537
 H        -0.998933        -0.115135        -0.015729
 H         0.376933         0.339311        -2.717790
 H        -0.550201         1.628049        -2.022820
 H         1.020171         2.349102        -3.823093
 H         3.497374         2.451832        -3.413062
 H         3.660841         0.001077        -2.283804
 H         4.390577         1.245284        -1.205896
 H         3.149784        -0.233176        -0.087577
