19
Iteration:  1784charge 0 multiplicity 1
 C         0.151942        -0.517656        -0.012131
 C         1.134677         0.532012        -0.708748
 C         0.580975         1.109483        -1.930095
 C         1.378883         2.053716        -2.782261
 O         2.005693         3.204152        -2.247270
 C         2.828638         1.996960        -2.664680
 C         3.366418         0.989001        -1.678585
 C         2.591364         0.562055        -0.472803
 O         1.676732         1.461855         0.262449
 H         0.076315        -1.463243        -0.539981
 H         0.520670        -0.517754         1.058219
 H        -0.877075        -0.225934         0.119759
 H         0.314815         0.289833        -2.673935
 H        -0.355706         1.473826        -1.631305
 H         0.907964         2.148534        -3.857088
 H         3.491458         2.212318        -3.534794
 H         3.271624         0.018524        -2.168974
 H         4.423372         1.146094        -1.464308
 H         2.946575        -0.280142         0.057739
