19
Iteration:  1181charge 0 multiplicity 1
 C         0.174939        -0.467204         0.171841
 C         1.052252         0.538140        -0.699822
 C         0.306757         1.460321        -1.820751
 C         1.345344         2.173443        -2.663461
 O         2.106177         3.202378        -1.955890
 C         2.792095         2.056215        -2.635257
 C         3.335980         0.901125        -1.945249
 C         2.514860         0.249959        -0.808939
 O         2.003707         1.230752         0.090946
 H         0.580827        -1.495525         0.027140
 H         0.271889        -0.276686         1.273596
 H        -0.906239        -0.391782        -0.096568
 H        -0.425256         0.799662        -2.485525
 H        -0.472144         2.205808        -1.467766
 H         0.997515         2.522364        -3.644294
 H         3.267116         2.296973        -3.521924
 H         3.432389         0.117832        -2.664512
 H         4.351882         1.200560        -1.669605
 H         2.922016        -0.702098        -0.472816
