19
Iteration:  3855
 C         0.268353        -0.472461        -0.115585
 C         1.038417         0.552542        -0.752331
 C         0.296529         1.391466        -1.816058
 C         1.309816         1.947339        -2.786874
 O         2.121580         3.083765        -2.336018
 C         2.825585         1.832704        -2.700977
 C         3.478633         1.232129        -1.444331
 C         2.553954         0.479332        -0.648381
 O         1.743137         1.265006         0.331683
 H         0.102542        -1.325877        -0.849492
 H         0.695464        -0.782515         0.825656
 H        -0.697162        -0.024791         0.101748
 H        -0.432287         0.648345        -2.446183
 H        -0.235931         2.261457        -1.372702
 H         1.016466         2.099778        -3.863742
 H         3.456544         1.844649        -3.591073
 H         4.252476         0.599577        -1.905272
 H         3.940544         2.096285        -0.987205
 H         2.845123        -0.409088        -0.055097
