19
Iteration:  2692
 C         0.183354        -0.563363        -0.033310
 C         1.040263         0.590426        -0.608767
 C         0.484242         1.297585        -1.889787
 C         1.420358         1.993492        -2.812594
 O         2.029490         3.217401        -2.436161
 C         2.793601         1.978014        -2.618167
 C         3.432466         1.117332        -1.536795
 C         2.491389         0.414772        -0.552288
 O         1.754113         1.337832         0.297474
 H        -0.221829        -1.221570        -0.787674
 H         0.897861        -1.224372         0.495698
 H        -0.550061        -0.331006         0.746366
 H        -0.133369         0.576722        -2.607540
 H        -0.318621         2.009273        -1.731314
 H         1.035564         2.014269        -3.849518
 H         3.485095         2.017169        -3.546527
 H         3.933719         0.295922        -2.086166
 H         4.254529         1.670621        -1.006095
 H         2.962067        -0.470247        -0.174074
