19
Iteration:   535
 C         0.228094        -0.481463         0.003832
 C         0.994372         0.520894        -0.747506
 C         0.303442         1.467037        -1.626372
 C         1.247982         2.316348        -2.503093
 O         2.261195         3.136070        -1.966934
 C         2.709009         2.002368        -2.711623
 C         3.356644         0.815505        -1.991295
 C         2.504201         0.340683        -0.847401
 O         1.987217         1.237185         0.081842
 H        -0.774580        -0.221893        -0.056498
 H         0.311359        -1.503501        -0.303969
 H         0.622403        -0.458173         1.124715
 H        -0.613520         1.074300        -2.111279
 H        -0.359550         2.124709        -0.944252
 H         0.741719         2.773932        -3.359716
 H         3.193434         2.209618        -3.692881
 H         3.477398        -0.031570        -2.765019
 H         4.412472         1.027834        -1.715500
 H         2.936754        -0.594391        -0.318053
