19
Iteration:  3480charge 0 multiplicity 1
 C         0.206412        -0.648112        -0.278231
 C         1.016228         0.541592        -0.715646
 C         0.422513         1.508699        -1.624323
 C         1.282098         1.993240        -2.705296
 O         2.162862         3.126472        -2.622991
 C         2.791146         1.823485        -2.707947
 C         3.536283         1.260275        -1.431996
 C         2.486724         0.566301        -0.564179
 O         1.707462         1.216875         0.416888
 H         0.098922        -1.307248        -1.083568
 H         0.805966        -1.210502         0.468982
 H        -0.688529        -0.322438         0.155143
 H        -0.311319         0.958342        -2.151819
 H        -0.005199         2.421996        -1.005326
 H         0.812236         1.689149        -3.687477
 H         3.322642         1.773517        -3.674294
 H         4.237009         0.418738        -1.713667
 H         4.069569         2.116040        -0.997578
 H         2.869575        -0.425889        -0.074197
