19
Iteration:  2090charge 0 multiplicity 1
 C         0.126547        -0.438908         0.015837
 C         1.057849         0.550225        -0.698011
 C         0.508624         1.085112        -1.979888
 C         1.388808         2.011452        -2.860457
 O         2.003885         3.234691        -2.278014
 C         2.866701         2.021343        -2.617147
 C         3.416486         1.064594        -1.574210
 C         2.481556         0.432887        -0.596614
 O         1.793226         1.387905         0.289081
 H        -0.299128        -1.199391        -0.606575
 H         0.803226        -0.973393         0.838827
 H        -0.663081         0.032959         0.594361
 H         0.239152         0.273174        -2.581181
 H        -0.430361         1.624611        -1.802488
 H         0.967306         2.278556        -3.762498
 H         3.510409         2.288714        -3.403036
 H         3.794964         0.143616        -2.047041
 H         4.243522         1.489754        -0.969666
 H         2.953817        -0.480964        -0.100990
