19
Iteration:   718
 C         0.098448        -0.610705        -0.210440
 C         1.063138         0.519946        -0.629324
 C         0.441709         1.645667        -1.432266
 C         1.232469         2.308438        -2.468858
 O         2.253556         3.158855        -2.218233
 C         2.575990         1.843504        -2.832364
 C         3.402140         0.990564        -1.934165
 C         2.579619         0.428776        -0.804893
 O         1.967971         1.095383         0.282823
 H        -0.787283        -0.128984         0.235426
 H        -0.242999        -1.237896        -1.062597
 H         0.542402        -1.168509         0.541884
 H        -0.491573         1.073082        -1.963673
 H         0.175360         2.428264        -0.720288
 H         0.656779         2.585528        -3.401025
 H         2.892054         1.815291        -3.902966
 H         3.855932         0.136341        -2.430542
 H         4.239685         1.608239        -1.499583
 H         2.941244        -0.546953        -0.464837
