19
Iteration:  2631charge 0 multiplicity 1
 C         0.255494        -0.466752         0.011533
 C         1.070307         0.540730        -0.739938
 C         0.438403         1.054860        -2.007167
 C         1.299531         2.141827        -2.687123
 O         2.149015         3.015492        -2.060660
 C         2.772819         1.922313        -2.719193
 C         3.432848         1.007697        -1.641852
 C         2.526167         0.567920        -0.595377
 O         1.684894         1.579768         0.153016
 H        -0.187997        -1.205523        -0.818426
 H         0.929896        -0.896475         0.684977
 H        -0.667412        -0.029693         0.482419
 H         0.322417         0.264097        -2.667051
 H        -0.619349         1.377864        -1.727788
 H         0.787870         2.475052        -3.635176
 H         3.454705         2.173805        -3.489362
 H         3.967686         0.115938        -2.059288
 H         4.326008         1.471430        -1.130290
 H         2.829642        -0.334112         0.047146
