19
Iteration:  1569
 C         0.175988        -0.415138        -0.044974
 C         1.132767         0.549677        -0.587434
 C         0.447249         1.224002        -1.866399
 C         1.250660         2.114731        -2.842769
 O         2.093877         3.230405        -2.341405
 C         2.744931         2.036199        -2.725901
 C         3.349697         1.062798        -1.639672
 C         2.577203         0.353693        -0.579383
 O         1.893497         1.208117         0.397071
 H        -0.767001        -0.183369        -0.550840
 H         0.407762        -1.532267        -0.482862
 H        -0.217927        -0.262025         1.079540
 H        -0.000165         0.401710        -2.472482
 H        -0.450595         1.808831        -1.474054
 H         0.856070         2.315557        -3.771852
 H         3.339097         2.214694        -3.534286
 H         3.746020         0.224826        -2.222202
 H         4.193891         1.644542        -1.224823
 H         2.995391        -0.607375        -0.179847
