19
Iteration:   850
 C         0.204873        -0.279829         0.161226
 C         1.045224         0.561444        -0.745032
 C         0.391046         1.371244        -1.845268
 C         1.287631         2.211882        -2.706940
 O         2.036062         3.166653        -1.859604
 C         2.724831         2.082290        -2.554378
 C         3.309719         0.904996        -2.002559
 C         2.386578         0.174627        -0.945802
 O         2.183971         1.135187         0.135496
 H         0.097304         0.266860         1.081132
 H        -0.646878        -0.756877        -0.278941
 H         0.792123        -1.254416         0.537804
 H        -0.227385         0.741844        -2.352280
 H        -0.318644         2.037014        -1.431624
 H         0.804222         2.763344        -3.593798
 H         3.256730         2.488288        -3.417647
 H         3.710363         0.316906        -2.849781
 H         4.175172         1.182145        -1.317916
 H         2.681991        -0.790231        -0.509277
