19
Iteration:  3073
 C         0.240352        -0.657891        -0.280242
 C         1.109399         0.592810        -0.640584
 C         0.392510         1.563773        -1.688189
 C         1.351005         1.930722        -2.839630
 O         2.108369         3.151879        -2.708119
 C         2.735054         1.842151        -2.651638
 C         3.373231         1.277432        -1.371734
 C         2.541551         0.464315        -0.544869
 O         1.795977         1.174734         0.520105
 H         0.104008        -1.255880        -1.166335
 H         0.523137        -1.148090         0.629124
 H        -0.876800        -0.312444        -0.067050
 H        -0.554887         1.047620        -2.005088
 H         0.126491         2.621511        -1.296024
 H         0.958067         1.832464        -3.870964
 H         3.466785         1.638774        -3.514423
 H         4.338405         0.760710        -1.736079
 H         3.725719         2.162092        -0.796321
 H         2.839670        -0.586107        -0.355656
