19
Iteration:  2397
 C         0.070182        -0.555255         0.138424
 C         1.002000         0.466592        -0.635986
 C         0.473895         1.241935        -1.898787
 C         1.445977         2.069114        -2.833402
 O         2.041920         3.249580        -2.472574
 C         2.907939         2.016912        -2.689441
 C         3.483783         1.190878        -1.540397
 C         2.468833         0.376699        -0.586420
 O         1.749899         1.284684         0.273105
 H        -0.429402        -1.249938        -0.490289
 H         0.680430        -1.153649         0.944147
 H        -0.854541        -0.161042         0.522174
 H         0.141386         0.530382        -2.580754
 H        -0.388690         1.886330        -1.509658
 H         1.007319         2.195780        -3.774782
 H         3.673928         2.129348        -3.468987
 H         4.011479         0.399110        -2.098846
 H         4.298796         1.859937        -1.102242
 H         2.991176        -0.511799        -0.090703
