19
Iteration:  1881charge 0 multiplicity 1
 C         0.155598        -0.541633        -0.108916
 C         1.075254         0.546511        -0.612028
 C         0.469921         1.295805        -1.794740
 C         1.388167         1.995912        -2.827736
 O         2.029635         3.241028        -2.609004
 C         2.888403         2.007347        -2.692920
 C         3.418829         1.145881        -1.558669
 C         2.532434         0.436314        -0.471828
 O         1.718982         1.267348         0.421653
 H        -0.489369        -1.044335        -0.912616
 H         0.711406        -1.381678         0.455662
 H        -0.577563        -0.123372         0.679996
 H        -0.064026         0.356795        -2.271100
 H        -0.332714         1.990536        -1.413227
 H         1.103751         1.804057        -3.797645
 H         3.515586         2.132406        -3.492934
 H         4.023113         0.333160        -2.010720
 H         4.080428         1.759847        -0.902106
 H         2.941446        -0.436548         0.070585
