19
Iteration:   745charge 0 multiplicity 1
 C         0.358643        -0.616910        -0.275126
 C         1.036817         0.669921        -0.615500
 C         0.273277         1.699149        -1.493073
 C         1.169376         2.318014        -2.569147
 O         2.334144         3.076661        -2.180232
 C         2.612052         1.953139        -2.812532
 C         3.225398         0.874752        -1.891245
 C         2.471570         0.319410        -0.723990
 O         2.036176         1.149531         0.307474
 H        -0.728215        -0.803643        -0.126639
 H         0.437241        -1.230497        -1.173957
 H         1.031932        -0.959321         0.609858
 H        -0.566495         1.208077        -1.801203
 H         0.020447         2.546920        -0.787804
 H         0.645783         2.712549        -3.427644
 H         3.131078         2.023787        -3.845651
 H         3.534526        -0.043489        -2.442059
 H         4.173091         1.200321        -1.486949
 H         2.676237        -0.732862        -0.366742
