19
Iteration:  2255
 C         0.075662        -0.489624        -0.079731
 C         1.025844         0.602631        -0.695014
 C         0.348540         1.226958        -1.914148
 C         1.402744         1.949140        -2.766883
 O         2.040114         3.090306        -2.274964
 C         2.866547         1.929202        -2.615194
 C         3.535686         1.160572        -1.518301
 C         2.537682         0.463823        -0.665272
 O         1.817779         1.373911         0.247339
 H        -0.501782        -1.092311        -0.713022
 H         0.740742        -1.030509         0.728636
 H        -0.666525         0.098878         0.426495
 H        -0.248109         0.530646        -2.479437
 H        -0.444607         2.012007        -1.522658
 H         1.243692         2.025207        -3.821899
 H         3.340811         2.089865        -3.565503
 H         4.311923         0.504548        -1.953692
 H         4.015047         1.962928        -0.900003
 H         3.005726        -0.491868        -0.091683
