19
Iteration:  4347charge 0 multiplicity 1
 C         0.151330        -0.258709        -0.080037
 C         1.177853         0.543138        -0.782457
 C         0.505487         1.087800        -2.028098
 C         1.272037         2.078865        -2.829940
 O         1.979435         2.985501        -1.937329
 C         2.706298         1.974025        -2.577559
 C         3.482502         0.988989        -1.632875
 C         2.577338         0.452690        -0.570579
 O         1.804667         1.486106         0.130604
 H        -0.269258        -1.132186        -0.673111
 H         0.563042        -0.819955         0.828854
 H        -0.678769         0.305927         0.197423
 H         0.371446         0.107238        -2.688708
 H        -0.446121         1.530998        -1.678377
 H         0.944005         2.281114        -3.905350
 H         3.329895         2.376939        -3.368281
 H         3.948576         0.249136        -2.255847
 H         4.300865         1.524030        -1.135816
 H         2.949565        -0.218261         0.223321
