19
Iteration:  4353charge 0 multiplicity 1
 C         0.147661        -0.315527        -0.038170
 C         1.132213         0.514912        -0.799172
 C         0.477550         1.081356        -2.028527
 C         1.298484         2.068790        -2.858904
 O         1.973916         3.015600        -1.949337
 C         2.760387         1.947426        -2.546431
 C         3.486030         1.040638        -1.654619
 C         2.586611         0.466709        -0.562558
 O         1.815204         1.488856         0.125807
 H        -0.381705        -1.078487        -0.608915
 H         0.640311        -0.813241         0.819248
 H        -0.699653         0.331341         0.385725
 H         0.280294         0.316368        -2.768665
 H        -0.476001         1.536958        -1.724369
 H         0.949329         2.502208        -3.783970
 H         3.344170         2.208505        -3.460267
 H         4.004360         0.161931        -2.141600
 H         4.303142         1.642572        -1.209466
 H         2.777602        -0.379925         0.146258
