19
Iteration:  2350
 C         0.203814        -0.472809        -0.159648
 C         1.085619         0.634411        -0.720159
 C         0.410732         1.252011        -1.946237
 C         1.253181         2.063558        -2.848295
 O         2.021831         2.962461        -2.073361
 C         2.755265         1.870983        -2.658553
 C         3.525997         0.967756        -1.549061
 C         2.575333         0.554158        -0.500005
 O         1.800164         1.525282         0.176042
 H         0.326038        -1.448911        -0.676724
 H         0.542668        -0.606842         0.901577
 H        -0.906400        -0.382571        -0.235031
 H        -0.093649         0.421071        -2.483217
 H        -0.339877         1.897730        -1.575495
 H         0.877429         2.393033        -3.813399
 H         3.363366         2.059642        -3.561463
 H         4.074816         0.112514        -1.967595
 H         4.277435         1.636179        -1.096969
 H         3.039494        -0.171955         0.065437
