19
Iteration:   959
 C         0.224156        -0.658082        -0.099003
 C         1.081314         0.553248        -0.667802
 C         0.432597         1.676991        -1.472951
 C         1.239334         2.297688        -2.624326
 O         2.210748         3.188411        -2.170346
 C         2.674354         2.019911        -2.712994
 C         3.258319         0.825693        -1.922783
 C         2.515238         0.273718        -0.836545
 O         1.956254         1.186897         0.234958
 H        -0.836651        -0.477985        -0.095441
 H         0.395167        -1.558728        -0.654480
 H         0.665545        -0.733758         1.020516
 H        -0.586242         1.305623        -2.006658
 H         0.293375         2.573939        -0.752631
 H         0.593602         2.496692        -3.540145
 H         3.154811         2.202017        -3.591964
 H         3.400330         0.047347        -2.687318
 H         4.302202         1.068207        -1.601334
 H         2.886031        -0.647946        -0.471979
