19
Iteration:   121charge 0 multiplicity 1
 C         0.141305        -0.423524        -0.081788
 C         1.076725         0.624971        -0.668830
 C         0.380778         1.657635        -1.584609
 C         1.208424         2.221558        -2.696539
 O         2.150854         3.169691        -2.271886
 C         2.654399         1.921411        -2.706617
 C         3.355174         1.085164        -1.721984
 C         2.508481         0.233532        -0.860365
 O         2.110017         0.923202         0.310163
 H         0.771510        -1.242881         0.222197
 H        -0.403479        -0.079748         0.765376
 H        -0.580124        -0.791399        -0.781301
 H        -0.424904         1.081441        -2.021927
 H        -0.138813         2.376831        -0.984154
 H         0.731705         2.296418        -3.658692
 H         3.169813         1.868188        -3.650768
 H         4.046000         0.400022        -2.233554
 H         3.947307         1.698971        -1.032059
 H         2.851056        -0.800699        -0.775275
