19
Iteration:  3485
 C         0.208959        -0.613742        -0.258665
 C         1.029788         0.534983        -0.683224
 C         0.406530         1.498841        -1.660588
 C         1.314188         1.983940        -2.757874
 O         2.161890         3.166125        -2.630258
 C         2.784354         1.873537        -2.693112
 C         3.491536         1.233782        -1.457257
 C         2.541736         0.509771        -0.538637
 O         1.707878         1.211156         0.433475
 H         0.146561        -1.423462        -1.093201
 H         0.777205        -1.161730         0.511649
 H        -0.768116        -0.313399         0.277833
 H        -0.464578         0.904869        -2.114175
 H        -0.084129         2.253779        -1.112659
 H         0.925224         1.798486        -3.748085
 H         3.254479         1.715924        -3.667377
 H         4.194006         0.487162        -1.803119
 H         4.029987         1.991780        -0.816898
 H         2.783829        -0.389979        -0.086649
