19
Iteration:  2797
 C         0.415305        -0.682187        -0.260340
 C         1.025189         0.639792        -0.638814
 C         0.363571         1.530586        -1.704913
 C         1.305924         2.014839        -2.823132
 O         2.152151         3.147190        -2.605960
 C         2.818171         1.863214        -2.787247
 C         3.453014         1.139750        -1.540647
 C         2.522668         0.490277        -0.483061
 O         1.573036         1.279323         0.592277
 H         0.272020        -1.215677        -1.177411
 H         1.154680        -1.200900         0.483104
 H        -0.569487        -0.677064         0.174064
 H        -0.378677         0.935682        -2.027970
 H        -0.016803         2.471647        -1.222548
 H         0.812546         2.036730        -3.806810
 H         3.351811         1.753090        -3.705390
 H         3.890076         0.179969        -1.938098
 H         4.274516         1.582680        -1.078843
 H         2.788379        -0.488213        -0.009486
