19
Iteration:  2096
 C         0.135664        -0.499783         0.001401
 C         1.064958         0.565000        -0.661091
 C         0.485254         1.115869        -1.960763
 C         1.386090         2.025551        -2.846562
 O         1.996088         3.186291        -2.286663
 C         2.870786         2.042952        -2.623929
 C         3.388834         1.026290        -1.561231
 C         2.519185         0.465373        -0.594937
 O         1.818772         1.429013         0.303218
 H        -0.348666        -1.229580        -0.722837
 H         0.593290        -1.109605         0.680939
 H        -0.740565         0.109111         0.365960
 H         0.176286         0.196594        -2.610749
 H        -0.476484         1.653934        -1.755665
 H         1.026950         2.272881        -3.938825
 H         3.644843         2.274244        -3.468621
 H         3.833970         0.177324        -2.128903
 H         4.219838         1.494648        -1.018251
 H         2.858571        -0.419516        -0.085664
