19
Iteration:  3893
 C         0.162494        -0.563189        -0.041489
 C         1.025576         0.522072        -0.693272
 C         0.389683         1.191335        -1.922343
 C         1.414603         1.988055        -2.819930
 O         2.082905         3.157421        -2.223274
 C         2.837029         1.981963        -2.609220
 C         3.420637         1.076316        -1.641627
 C         2.504688         0.516288        -0.523100
 O         1.791027         1.488765         0.219403
 H        -0.207167        -1.140202        -0.865648
 H         0.654172        -1.308243         0.599781
 H        -0.678190        -0.118867         0.538165
 H        -0.080861         0.430204        -2.516010
 H        -0.470319         1.762829        -1.554382
 H         1.112383         2.042573        -3.844435
 H         3.504786         2.357498        -3.426937
 H         3.637424         0.119023        -2.143337
 H         4.423252         1.374866        -1.193110
 H         3.099561        -0.251294         0.093628
