19
Iteration:  2885charge 0 multiplicity 1
 C         0.159199        -0.454743         0.071305
 C         1.020902         0.554222        -0.679392
 C         0.451714         1.254666        -1.959782
 C         1.432913         1.979207        -2.907319
 O         1.956618         3.126602        -2.276305
 C         2.879590         2.114398        -2.674038
 C         3.442307         1.118337        -1.614741
 C         2.515599         0.432056        -0.620353
 O         1.802632         1.231270         0.331739
 H         0.031453        -1.361116        -0.465265
 H         0.718112        -0.562857         1.100692
 H        -0.862746        -0.186109         0.327509
 H         0.005685         0.375981        -2.477019
 H        -0.449713         2.007924        -1.798841
 H         0.937148         2.218629        -3.812499
 H         3.604403         2.433882        -3.378362
 H         4.067720         0.289547        -2.081916
 H         4.010081         1.724592        -0.908411
 H         2.995495        -0.495249        -0.170660
