19
Iteration:  4460
 C         0.148671        -0.765239        -0.368443
 C         1.050915         0.633839        -0.622485
 C         0.377019         1.547122        -1.642660
 C         1.308802         1.883081        -2.790130
 O         2.148288         3.042954        -2.470269
 C         2.790704         1.824797        -2.731735
 C         3.477687         1.237783        -1.508787
 C         2.534146         0.562392        -0.522034
 O         1.775051         1.352552         0.427161
 H         0.533655        -1.423870        -1.101827
 H         0.361979        -1.178090         0.548736
 H        -0.982964        -0.509215        -0.529940
 H        -0.552299         1.126499        -2.008685
 H         0.014281         2.575917        -1.167325
 H         0.867020         1.927331        -3.782785
 H         3.593697         1.893953        -3.531146
 H         4.270039         0.497542        -1.825741
 H         3.960943         2.162792        -0.995323
 H         2.940035        -0.338841        -0.066483
