19
Iteration:  4988charge 0 multiplicity 1
 C         0.278122        -0.634383        -0.148921
 C         1.021074         0.537124        -0.753117
 C         0.413199         1.422441        -1.840288
 C         1.315688         2.022873        -2.809345
 O         2.144396         3.161209        -2.380748
 C         2.803836         1.905126        -2.647924
 C         3.405958         1.058990        -1.518537
 C         2.561973         0.488147        -0.467318
 O         1.680672         1.359787         0.279135
 H         0.065627        -1.424643        -0.876714
 H         0.866092        -0.977644         0.743298
 H        -0.637499        -0.136055         0.317293
 H        -0.395653         0.878840        -2.403142
 H        -0.048662         2.264752        -1.286228
 H         0.871238         2.174020        -3.785434
 H         3.403249         1.864206        -3.554341
 H         4.036758         0.254903        -1.880442
 H         4.111404         1.695676        -0.934157
 H         2.960247        -0.380890         0.118208
