19
Iteration:  2429charge 0 multiplicity 1
 C         0.150570        -0.460913        -0.093387
 C         1.046243         0.601236        -0.712592
 C         0.451246         1.264433        -1.826668
 C         1.294260         1.979345        -2.859385
 O         2.108233         3.113900        -2.406158
 C         2.798221         1.856946        -2.655298
 C         3.515346         1.262700        -1.452337
 C         2.577536         0.432256        -0.581639
 O         1.709960         1.281234         0.338703
 H        -0.562370        -0.813139        -0.825526
 H         0.785440        -1.450285         0.195970
 H        -0.286212        -0.005947         0.823177
 H        -0.146375         0.583032        -2.371011
 H        -0.339273         1.913206        -1.408572
 H         0.833495         2.195493        -3.764734
 H         3.425222         1.876633        -3.570049
 H         4.218221         0.596771        -1.947550
 H         4.018879         2.191733        -1.063567
 H         2.994851        -0.493301        -0.201368
