19
Iteration:  3981
 C         0.203519        -0.416031         0.027405
 C         1.072148         0.515841        -0.758067
 C         0.430986         1.221964        -1.980482
 C         1.368796         1.941423        -2.856710
 O         1.964857         3.100127        -2.080904
 C         2.824276         2.045542        -2.570832
 C         3.491588         1.012333        -1.597542
 C         2.502133         0.440181        -0.591794
 O         1.777664         1.427320         0.116802
 H         0.197978        -1.434042        -0.373551
 H         0.566170        -0.439675         1.002843
 H        -0.841630        -0.061657        -0.009827
 H        -0.203970         0.438596        -2.613598
 H        -0.192320         2.063607        -1.682771
 H         0.992706         2.185649        -3.863277
 H         3.638088         2.312167        -3.306140
 H         3.911069         0.230427        -2.244253
 H         4.315193         1.539903        -1.053453
 H         3.044520        -0.258691         0.118516
