19
Iteration:  2846
 C         0.239976        -0.614998        -0.242072
 C         1.044392         0.536603        -0.685732
 C         0.371598         1.388212        -1.683552
 C         1.272586         2.020672        -2.712406
 O         2.135169         3.081800        -2.407153
 C         2.763276         1.846065        -2.678059
 C         3.474661         1.155199        -1.534300
 C         2.618950         0.516730        -0.471566
 O         1.730003         1.387422         0.207846
 H        -0.117112        -1.230822        -1.172844
 H         0.707684        -1.232318         0.448738
 H        -0.747863        -0.220608         0.191901
 H        -0.294421         0.678995        -2.317042
 H        -0.244842         2.069013        -1.146542
 H         0.792641         2.052021        -3.808566
 H         3.363052         1.857107        -3.697507
 H         4.349149         0.589821        -1.869107
 H         3.954624         2.071920        -0.984859
 H         3.005003        -0.174068         0.246661
