19
Iteration:  2713charge 0 multiplicity 1
 C         0.178049        -0.529221        -0.075480
 C         1.071123         0.517997        -0.707828
 C         0.374046         1.294089        -1.861113
 C         1.311129         2.041992        -2.924739
 O         2.099065         3.174281        -2.514585
 C         2.796658         1.996340        -2.689025
 C         3.433752         1.182237        -1.422830
 C         2.483441         0.452827        -0.526145
 O         1.874421         1.202677         0.465056
 H        -0.194529        -1.310195        -0.661536
 H         0.564983        -1.065027         0.848445
 H        -0.631642         0.112866         0.278571
 H        -0.306912         0.571509        -2.508393
 H        -0.392924         2.003397        -1.629264
 H         0.896581         2.136663        -3.992337
 H         3.612441         2.058262        -3.547300
 H         4.233094         0.584723        -1.910864
 H         3.902009         1.983065        -0.843385
 H         3.000893        -0.433950        -0.143650
