19
Iteration:  1684charge 0 multiplicity 1
 C         0.128457        -0.565086        -0.003752
 C         1.057815         0.522349        -0.612050
 C         0.457422         1.203663        -1.878013
 C         1.410833         2.042811        -2.755889
 O         2.062535         3.237791        -2.311986
 C         2.839931         1.998394        -2.702285
 C         3.382292         1.069272        -1.679980
 C         2.527345         0.456907        -0.576594
 O         1.782185         1.404100         0.305471
 H         0.356289        -0.768929         1.172057
 H        -0.927268        -0.406618        -0.112873
 H         0.367722        -1.538572        -0.597731
 H        -0.068035         0.398945        -2.472017
 H        -0.305659         1.873540        -1.656102
 H         0.986883         2.164953        -3.874438
 H         3.434509         2.154537        -3.711685
 H         3.727444         0.201449        -2.247834
 H         4.266641         1.457773        -1.164711
 H         3.031748        -0.384852        -0.110434
