19
Iteration:  2498charge 0 multiplicity 1
 C         0.282081        -0.651701        -0.112202
 C         1.073137         0.514360        -0.714343
 C         0.361429         1.342361        -1.790323
 C         1.335047         2.061651        -2.755196
 O         2.191813         3.285377        -2.525069
 C         2.817930         1.843673        -2.693840
 C         3.467483         1.016568        -1.602878
 C         2.520836         0.604051        -0.415567
 O         1.590206         1.356242         0.385169
 H         0.012671        -1.541362        -0.812839
 H         1.009036        -1.134097         0.567093
 H        -0.582187        -0.378823         0.527259
 H        -0.298544         0.750481        -2.372508
 H        -0.302054         2.140837        -1.267040
 H         1.027540         2.204183        -3.802146
 H         3.377537         1.811443        -3.629131
 H         3.759645         0.070774        -2.162830
 H         4.352456         1.601269        -1.236257
 H         2.867777        -0.399780         0.049767
