19
Iteration:  3940
 C         0.156838        -0.450399         0.063749
 C         1.032381         0.529394        -0.725726
 C         0.487606         0.995096        -2.110896
 C         1.381717         2.126502        -2.765524
 O         2.160696         3.067594        -2.004246
 C         2.768691         2.001011        -2.669941
 C         3.363647         0.993728        -1.681252
 C         2.522551         0.555556        -0.524889
 O         1.753225         1.512964         0.121981
 H        -0.053439        -1.468207        -0.552550
 H         0.606259        -0.856094         0.965415
 H        -0.666986         0.149977         0.475603
 H         0.469166         0.190133        -2.728541
 H        -0.666243         1.278164        -2.009585
 H         0.793276         2.698767        -3.541219
 H         3.317646         2.264878        -3.581831
 H         3.899335         0.127934        -2.186078
 H         4.182772         1.619078        -1.242736
 H         2.970399        -0.147882         0.107204
