19
Iteration:  4354
 C         0.143340        -0.322971        -0.030227
 C         1.121770         0.513895        -0.800068
 C         0.471145         1.087085        -2.029135
 C         1.305438         2.064576        -2.855156
 O         1.973443         3.021042        -1.954598
 C         2.769024         1.946849        -2.547842
 C         3.490700         1.044687        -1.654954
 C         2.586271         0.470423        -0.560456
 O         1.816211         1.487472         0.124110
 H        -0.400825        -1.085388        -0.626165
 H         0.669808        -0.826598         0.857025
 H        -0.665939         0.323085         0.402778
 H         0.238270         0.298806        -2.803849
 H        -0.450881         1.514222        -1.750071
 H         0.946883         2.539228        -3.765070
 H         3.349993         2.188680        -3.451298
 H         3.990388         0.182337        -2.117945
 H         4.278651         1.642281        -1.231596
 H         2.791890        -0.415689         0.124968
