19
Iteration:   316charge 0 multiplicity 1
 C         0.187732        -0.350691         0.149932
 C         1.033436         0.505225        -0.771321
 C         0.307325         1.407526        -1.780097
 C         1.217419         2.272883        -2.647465
 O         2.167025         3.115959        -1.945554
 C         2.712282         2.022906        -2.746916
 C         3.445389         0.983219        -1.841224
 C         2.456083         0.249755        -0.922555
 O         2.063026         1.135435         0.123772
 H         0.677131        -1.218072         0.622551
 H         0.091131         0.427159         0.917604
 H        -0.947591        -0.667852        -0.194684
 H        -0.247879         0.649496        -2.477878
 H        -0.450806         1.952118        -1.172527
 H         0.840121         2.696542        -3.521624
 H         3.269302         2.234521        -3.591848
 H         4.016450         0.234635        -2.425885
 H         4.029366         1.466830        -1.109513
 H         2.772394        -0.744372        -0.570767
