19
Iteration:  3314charge 0 multiplicity 1
 C         0.223852        -0.699679        -0.444495
 C         0.997777         0.584991        -0.595978
 C         0.428576         1.750683        -1.451833
 C         1.356162         1.839158        -2.762930
 O         2.168297         3.022887        -2.962026
 C         2.801646         1.814219        -2.654932
 C         3.449990         1.518008        -1.350302
 C         2.523869         0.519573        -0.558712
 O         1.682534         1.037229         0.585203
 H        -0.298129        -0.828570        -1.375879
 H         0.780408        -1.542329        -0.253427
 H        -0.582728        -0.569341         0.323063
 H        -0.596159         1.602796        -1.619996
 H         0.617190         2.667761        -0.941513
 H         0.808728         1.511703        -3.663047
 H         3.322528         1.354144        -3.493761
 H         4.437446         1.017268        -1.438593
 H         3.475906         2.462076        -0.824036
 H         3.072898        -0.422042        -0.250452
