19
Iteration:  2826
 C         0.246746        -0.783952        -0.272717
 C         1.086273         0.533860        -0.642018
 C         0.407280         1.429240        -1.697007
 C         1.265610         2.007322        -2.748620
 O         2.229935         3.126019        -2.458583
 C         2.754258         1.755530        -2.759900
 C         3.445503         1.206006        -1.558604
 C         2.532095         0.637474        -0.504681
 O         1.667721         1.432283         0.416391
 H         0.001722        -1.296766        -1.308176
 H         0.761921        -1.534850         0.202413
 H        -0.684500        -0.501180         0.271978
 H        -0.536157         0.790186        -2.130217
 H        -0.005406         2.374806        -1.230593
 H         0.736455         2.281108        -3.643575
 H         3.235921         1.626590        -3.745400
 H         4.046910         0.350399        -1.781379
 H         4.240381         1.943539        -1.079233
 H         3.023151        -0.236015        -0.063377
