19
Iteration:  2352charge 0 multiplicity 1
 C         0.203773        -0.475745        -0.157200
 C         1.075453         0.631380        -0.724846
 C         0.410243         1.234371        -1.949334
 C         1.258800         2.074409        -2.841463
 O         2.017310         2.962283        -2.088307
 C         2.764910         1.860028        -2.664506
 C         3.515415         0.990658        -1.533948
 C         2.571540         0.552032        -0.500299
 O         1.807217         1.512922         0.180208
 H         0.309294        -1.396466        -0.640688
 H         0.574948        -0.588840         0.944391
 H        -0.858329        -0.321495        -0.252609
 H        -0.127431         0.489340        -2.466593
 H        -0.382429         1.972139        -1.591319
 H         0.916864         2.343459        -3.778289
 H         3.403722         2.106433        -3.526238
 H         3.998788         0.156605        -2.045476
 H         4.317666         1.640367        -1.084937
 H         3.084902        -0.257677         0.046512
