19
Iteration:  3548
 C         0.089373        -0.390439        -0.023405
 C         1.065739         0.505086        -0.732821
 C         0.360053         1.120919        -1.883495
 C         1.299383         1.964907        -2.807578
 O         2.084398         3.074447        -2.144073
 C         2.837064         1.993139        -2.602587
 C         3.542265         1.153960        -1.579988
 C         2.580220         0.497544        -0.620959
 O         1.774424         1.387819         0.132917
 H        -0.137920        -1.198638        -0.732229
 H         0.423310        -0.818509         0.919119
 H        -0.771286         0.193723         0.150125
 H        -0.007249         0.396213        -2.526932
 H        -0.434725         1.880047        -1.419525
 H         1.056038         2.295558        -3.838445
 H         3.392870         2.154879        -3.545889
 H         4.145987         0.430926        -2.176379
 H         4.249991         1.647675        -0.855376
 H         3.086854        -0.370267        -0.172857
