19
Iteration:   989
 C         0.068732        -0.486228        -0.197921
 C         1.075455         0.561594        -0.585988
 C         0.377682         1.571801        -1.472533
 C         1.192560         2.223145        -2.569491
 O         2.146007         3.240386        -2.288728
 C         2.682839         2.036672        -2.801590
 C         3.369619         0.933152        -1.885608
 C         2.575622         0.251380        -0.816590
 O         2.126507         1.032100         0.387183
 H        -0.998775        -0.093211        -0.112109
 H         0.259292        -1.317220        -0.933124
 H         0.201220        -0.843609         0.747941
 H        -0.663092         1.162922        -1.814344
 H         0.066012         2.486674        -0.842069
 H         0.619759         2.395565        -3.466500
 H         3.168187         2.175095        -3.838305
 H         3.680697         0.155136        -2.588976
 H         4.288167         1.328795        -1.522363
 H         2.958565        -0.762209        -0.628416
