19
Iteration:   782charge 0 multiplicity 1
 C         0.150279        -0.586070        -0.117024
 C         1.066032         0.529107        -0.624233
 C         0.367103         1.506086        -1.534815
 C         1.218749         2.323289        -2.569950
 O         2.272874         3.206418        -2.102446
 C         2.695090         2.035846        -2.788009
 C         3.286551         0.830515        -2.039651
 C         2.571037         0.315535        -0.749900
 O         1.983814         1.204670         0.274521
 H        -0.853942        -0.141154         0.303620
 H         0.157103        -1.428483        -0.909282
 H         0.580051        -1.116087         0.696597
 H        -0.420914         1.070991        -2.099660
 H        -0.121773         2.252607        -0.891178
 H         0.604441         2.793368        -3.368285
 H         3.065845         2.136855        -3.764572
 H         3.292193         0.012436        -2.803868
 H         4.340559         1.113161        -1.804194
 H         3.040742        -0.570859        -0.407592
