19
Iteration:  2294charge 0 multiplicity 1
 C         0.283200        -0.598704         0.084359
 C         1.029268         0.493179        -0.646189
 C         0.448349         1.186224        -2.023005
 C         1.396181         2.171381        -2.834940
 O         2.215388         3.217835        -2.243968
 C         2.828255         1.988289        -2.669687
 C         3.383806         0.971210        -1.709631
 C         2.499257         0.462071        -0.498071
 O         1.548431         1.466287         0.259486
 H         0.052814        -1.618730        -0.418823
 H         0.693334        -0.876098         0.998989
 H        -0.630546        -0.095829         0.557449
 H         0.079063         0.361174        -2.705418
 H        -0.335354         1.781010        -1.691713
 H         1.005370         2.269356        -3.896392
 H         3.596585         2.060021        -3.481273
 H         3.742613         0.083339        -2.244859
 H         4.318476         1.382286        -1.339641
 H         2.866804        -0.213324         0.151964
