19
Iteration:  1006charge 0 multiplicity 1
 C         0.117815        -0.436292        -0.167669
 C         1.116143         0.568410        -0.615472
 C         0.467797         1.631131        -1.459034
 C         1.173597         2.245102        -2.653505
 O         2.194002         3.209145        -2.269806
 C         2.559778         1.887637        -2.782898
 C         3.365049         1.077346        -1.839154
 C         2.524658         0.257344        -0.861034
 O         2.091022         0.930037         0.378117
 H        -0.759471         0.183880         0.100394
 H        -0.172402        -1.098012        -0.990314
 H         0.442534        -1.007015         0.810664
 H        -0.123562         0.945964        -2.095586
 H        -0.173256         2.231011        -0.845799
 H         0.484336         2.546727        -3.464336
 H         2.950749         1.980349        -3.808319
 H         4.021244         0.391562        -2.447877
 H         4.093513         1.761575        -1.256056
 H         2.828366        -0.790404        -0.573071
