19
Iteration:  4515
 C         0.124432        -0.742679        -0.185632
 C         0.973441         0.544062        -0.632646
 C         0.443168         1.574059        -1.640087
 C         1.315982         2.030306        -2.799811
 O         2.212670         3.165594        -2.773740
 C         2.793062         1.839052        -2.754706
 C         3.427152         1.387022        -1.384638
 C         2.514827         0.493621        -0.579805
 O         1.766569         1.066327         0.538790
 H         0.682810        -1.488694        -0.695760
 H         0.071635        -0.841687         0.846803
 H        -0.872258        -0.646343        -0.812910
 H        -0.490249         1.181023        -1.975122
 H         0.393473         2.501428        -0.994600
 H         0.955871         1.858823        -3.787239
 H         3.381309         1.573009        -3.708911
 H         4.397221         0.895806        -1.652160
 H         3.747206         2.335690        -0.830464
 H         2.994549        -0.441501        -0.294835
