19
Iteration:  4661charge 0 multiplicity 1
 C         0.156696        -0.670145        -0.408197
 C         1.020783         0.620422        -0.602463
 C         0.443696         1.580035        -1.539654
 C         1.397997         1.894537        -2.749901
 O         2.073514         3.099240        -2.787073
 C         2.891542         1.832377        -2.708403
 C         3.406525         1.393628        -1.435964
 C         2.504288         0.453558        -0.551303
 O         1.743976         1.130200         0.538263
 H        -0.692416        -0.655054        -1.156895
 H         0.821160        -1.621612        -0.346670
 H        -0.294353        -0.454917         0.597053
 H        -0.494753         1.199457        -1.891939
 H         0.280632         2.578502        -0.941424
 H         0.933147         1.718044        -3.767979
 H         3.532910         1.684465        -3.522420
 H         4.439066         0.873151        -1.555970
 H         3.660733         2.321682        -0.839418
 H         2.908652        -0.426163        -0.038366
