19
Iteration:   712charge 0 multiplicity 1
 C         0.035266        -0.549004        -0.182184
 C         1.072920         0.520744        -0.684531
 C         0.424519         1.591876        -1.418171
 C         1.208623         2.266315        -2.459890
 O         2.260167         3.179847        -2.258734
 C         2.597767         1.892505        -2.853791
 C         3.420292         1.026185        -1.889516
 C         2.598258         0.388152        -0.778365
 O         1.974250         1.060462         0.274543
 H        -0.781981        -0.035619         0.377500
 H        -0.234038        -1.190008        -1.019805
 H         0.535884        -1.342281         0.555109
 H        -0.366127         1.217323        -1.939223
 H         0.079982         2.284467        -0.613742
 H         0.690562         2.537405        -3.368970
 H         2.914531         1.997833        -3.937762
 H         3.763931         0.155548        -2.496697
 H         4.268122         1.592810        -1.529471
 H         3.133529        -0.558084        -0.467303
