19
Iteration:  3328
 C         0.105744        -0.689475        -0.438837
 C         1.025367         0.613083        -0.585496
 C         0.426536         1.703401        -1.515117
 C         1.315277         1.899799        -2.701412
 O         2.181206         3.085445        -3.002849
 C         2.825856         1.721622        -2.736543
 C         3.450142         1.560727        -1.256409
 C         2.507332         0.607608        -0.529779
 O         1.788731         0.936578         0.593773
 H        -0.403538        -1.139991        -1.369875
 H         0.912346        -1.400792         0.112570
 H        -0.671621        -0.588733         0.395701
 H        -0.441624         1.333654        -1.996481
 H         0.083063         2.642659        -0.884817
 H         0.896875         1.414124        -3.655904
 H         3.271799         1.287491        -3.635952
 H         4.510565         1.134429        -1.395214
 H         3.699763         2.472634        -0.685012
 H         2.786712        -0.367538        -0.573096
