19
Iteration:   572charge 0 multiplicity 1
 C         0.347547        -0.590279        -0.040378
 C         1.004903         0.648955        -0.591922
 C         0.342337         1.441046        -1.731762
 C         1.256907         2.406968        -2.591402
 O         2.291267         3.083300        -1.920084
 C         2.713881         1.968170        -2.789619
 C         3.227339         0.738021        -2.110004
 C         2.414646         0.382449        -0.785741
 O         1.965012         1.322517         0.268162
 H        -0.752386        -0.437602         0.248195
 H         0.461635        -1.321283        -0.828645
 H         0.752695        -0.869899         0.824781
 H         0.022010         0.578793        -2.444493
 H        -0.315448         2.170437        -1.208289
 H         0.753035         3.053802        -3.327282
 H         3.190103         2.324370        -3.649792
 H         3.030298        -0.176286        -2.709099
 H         4.286823         0.870799        -1.871713
 H         2.825429        -0.475438        -0.287110
