19
Iteration:  3960charge 0 multiplicity 1
 C         0.176102        -0.399727         0.026995
 C         1.031176         0.605745        -0.716142
 C         0.384405         1.046389        -2.001760
 C         1.325345         2.063812        -2.710675
 O         2.056614         3.047631        -1.989966
 C         2.835472         1.975643        -2.599190
 C         3.541497         1.010291        -1.597369
 C         2.480684         0.467266        -0.688253
 O         1.772554         1.555429         0.039667
 H         0.312841        -1.386723        -0.508371
 H         0.682172        -0.601834         0.925579
 H        -0.862330        -0.110033         0.268854
 H         0.374761         0.219783        -2.777110
 H        -0.692291         1.425930        -1.928207
 H         1.006638         2.205570        -3.771283
 H         3.535388         2.153902        -3.461768
 H         4.023863         0.302069        -2.295128
 H         4.347338         1.555838        -1.034079
 H         2.739240        -0.485766        -0.159149
