19
Iteration:  3604charge 0 multiplicity 1
 C         0.258287        -0.506042         0.069699
 C         0.964952         0.566258        -0.702649
 C         0.513941         1.016888        -2.093616
 C         1.424490         2.015330        -2.763826
 O         2.149234         3.149878        -2.010618
 C         2.897119         2.072837        -2.637270
 C         3.349548         0.928720        -1.776224
 C         2.424201         0.605207        -0.548547
 O         1.670722         1.550981         0.225864
 H        -0.058452        -1.395842        -0.576370
 H         0.910457        -0.836379         0.796140
 H        -0.607795        -0.050971         0.536876
 H         0.401480         0.161931        -2.745992
 H        -0.760442         1.371997        -2.067088
 H         0.857950         2.224675        -3.708379
 H         3.479896         2.305713        -3.540393
 H         3.321301         0.141090        -2.571627
 H         4.440744         0.981249        -1.421366
 H         2.939312        -0.340350        -0.091675
