19
Iteration:  1931
 C         0.209397        -0.523919        -0.134611
 C         1.103656         0.555386        -0.734523
 C         0.451784         1.390198        -1.793536
 C         1.273991         1.919618        -2.841556
 O         2.106786         3.059123        -2.357109
 C         2.762595         1.839336        -2.718143
 C         3.500388         1.249932        -1.462572
 C         2.535293         0.404899        -0.572374
 O         1.705386         1.383450         0.300797
 H         0.394442        -1.482906        -0.683468
 H         0.538194        -0.772362         0.842063
 H        -0.842797        -0.223818        -0.174574
 H        -0.331291         0.783919        -2.130573
 H         0.061962         2.266787        -1.244849
 H         0.747232         2.295620        -3.808493
 H         3.341018         1.926910        -3.749383
 H         4.406119         0.649136        -1.665827
 H         3.801030         2.081351        -0.809634
 H         2.877675        -0.485269         0.020354
