19
Iteration:  2091charge 0 multiplicity 1
 C         0.124554        -0.447574         0.010169
 C         1.060708         0.554124        -0.693055
 C         0.504765         1.088470        -1.973954
 C         1.386083         2.013036        -2.859634
 O         2.001521         3.229439        -2.280319
 C         2.872718         2.025069        -2.620475
 C         3.409163         1.056952        -1.570162
 C         2.489744         0.437521        -0.599803
 O         1.798179         1.396368         0.293449
 H        -0.312279        -1.207556        -0.618615
 H         0.803434        -1.028654         0.847690
 H        -0.682768         0.047521         0.553744
 H         0.220670         0.249887        -2.596077
 H        -0.424003         1.621724        -1.799170
 H         0.983831         2.290167        -3.783536
 H         3.514641         2.282818        -3.389696
 H         3.793139         0.135241        -2.048687
 H         4.234668         1.489575        -0.971824
 H         2.933535        -0.464727        -0.109488
