19
Iteration:  4382charge 0 multiplicity 1
 C         0.173158        -0.503790         0.137915
 C         0.972831         0.494934        -0.681040
 C         0.454020         1.149549        -1.909098
 C         1.427475         2.011485        -2.830925
 O         2.112794         3.154056        -2.180529
 C         2.907846         2.101028        -2.595485
 C         3.496868         1.117818        -1.659806
 C         2.437117         0.427368        -0.705039
 O         1.657660         1.389144         0.145815
 H        -0.432562        -1.111427        -0.523453
 H         0.867208        -1.060738         0.687379
 H        -0.412369         0.041448         0.940792
 H         0.130567         0.418542        -2.680663
 H        -0.632116         1.620368        -1.715223
 H         1.118379         2.241187        -3.884848
 H         3.509160         2.184564        -3.543359
 H         4.037397         0.280630        -2.172136
 H         4.247573         1.642751        -0.955262
 H         2.838712        -0.373659        -0.065335
