19
Iteration:  4191charge 0 multiplicity 1
 C         0.259962        -0.657891        -0.178634
 C         1.055428         0.505979        -0.634981
 C         0.453980         1.529953        -1.723113
 C         1.354688         2.010226        -2.881651
 O         2.115719         3.219316        -2.696371
 C         2.819594         1.918605        -2.639805
 C         3.417346         1.180218        -1.430288
 C         2.485308         0.435687        -0.487241
 O         1.667485         1.223946         0.460933
 H         0.046697        -1.367382        -1.024831
 H         0.851930        -1.157245         0.617654
 H        -0.658044        -0.323968         0.230788
 H        -0.404782         0.972614        -2.233981
 H        -0.010091         2.283061        -1.157373
 H         1.032345         1.750161        -3.922598
 H         3.498095         1.929020        -3.492456
 H         4.083063         0.437862        -1.881726
 H         4.046534         1.970421        -1.056517
 H         2.858008        -0.506689         0.004391
