19
Iteration:   550
 C         0.329472        -0.572122         0.028570
 C         1.044778         0.563412        -0.745894
 C         0.283446         1.581231        -1.713482
 C         1.255341         2.320191        -2.634559
 O         2.299418         3.097380        -1.880292
 C         2.664764         1.966343        -2.728705
 C         3.197797         0.789178        -2.014221
 C         2.502748         0.327387        -0.792743
 O         1.977044         1.292542         0.165796
 H        -0.802676        -0.537855         0.175516
 H         0.607937        -1.490556        -0.482700
 H         0.704550        -0.566766         0.965589
 H        -0.187404         0.906288        -2.505574
 H        -0.183613         2.355288        -1.089532
 H         0.777792         2.893202        -3.442285
 H         3.142972         2.316098        -3.601800
 H         3.106890        -0.088618        -2.685449
 H         4.225974         1.015111        -1.720047
 H         2.889527        -0.597333        -0.348100
