19
Iteration:   421
 C         0.168153        -0.640238        -0.100743
 C         1.055408         0.491659        -0.663311
 C         0.384677         1.626130        -1.440273
 C         1.235281         2.223951        -2.525277
 O         2.292592         3.199713        -2.186300
 C         2.628252         1.863097        -2.860350
 C         3.390046         0.997179        -1.906240
 C         2.537724         0.362387        -0.783169
 O         1.910983         1.195462         0.188063
 H         0.145555        -0.577289         1.074907
 H        -0.927210        -0.552087        -0.530014
 H         0.436870        -1.570780        -0.509302
 H        -0.529497         1.346520        -1.877634
 H         0.090775         2.351602        -0.679194
 H         0.608599         2.728797        -3.372314
 H         3.054187         1.966656        -3.960926
 H         3.819685         0.157795        -2.482718
 H         4.349428         1.446036        -1.443599
 H         2.946344        -0.562636        -0.282693
