19
Iteration:  2485
 C         0.334079        -0.686411        -0.182991
 C         0.988709         0.555934        -0.645861
 C         0.397680         1.432803        -1.745570
 C         1.417621         2.027457        -2.800528
 O         2.106915         3.176752        -2.486835
 C         2.825035         1.878599        -2.670635
 C         3.418103         1.006968        -1.601336
 C         2.518133         0.545887        -0.443869
 O         1.614046         1.408883         0.331704
 H        -0.269168        -1.109811        -1.043845
 H         1.105182        -1.493693         0.317574
 H        -0.385247        -0.337019         0.600201
 H        -0.250902         0.848796        -2.316603
 H        -0.216616         2.254295        -1.240308
 H         0.865213         1.925193        -3.685867
 H         3.445211         1.936719        -3.580719
 H         3.973254         0.131101        -2.013135
 H         4.359250         1.548768        -1.188252
 H         3.073378        -0.051531         0.330829
