19
Iteration:   409
 C         0.238368        -0.606661        -0.187073
 C         1.030785         0.546113        -0.694758
 C         0.306258         1.610671        -1.516035
 C         1.203502         2.365811        -2.532944
 O         2.319988         3.077483        -2.205135
 C         2.597815         1.884405        -2.842611
 C         3.371865         0.961768        -1.890293
 C         2.536413         0.378391        -0.731519
 O         1.960819         1.168128         0.317808
 H         0.489125        -0.725696         1.008249
 H        -0.914641        -0.413248        -0.249048
 H         0.607199        -1.547840        -0.516978
 H        -0.471249         1.134941        -2.095634
 H        -0.102219         2.358464        -0.834148
 H         0.592062         2.742773        -3.458118
 H         2.926286         1.944199        -3.972495
 H         3.635402         0.048930        -2.436670
 H         4.305849         1.543338        -1.526450
 H         3.065784        -0.555019        -0.362013
