19
Iteration:  3624charge 0 multiplicity 1
 C         0.157775        -0.568578         0.072626
 C         1.024168         0.547360        -0.634987
 C         0.551688         1.123371        -1.988423
 C         1.386898         2.144361        -2.818361
 O         2.108166         3.115154        -2.138673
 C         2.848143         2.002825        -2.684387
 C         3.368791         0.962305        -1.703278
 C         2.505267         0.545827        -0.556601
 O         1.662640         1.476187         0.176944
 H         0.021229        -1.450495        -0.544734
 H         0.691346        -0.907788         0.940235
 H        -0.740085        -0.156762         0.392431
 H         0.481934         0.287585        -2.719252
 H        -0.440078         1.623824        -1.861598
 H         0.983839         2.639258        -3.778827
 H         3.594520         2.466067        -3.337255
 H         3.530105         0.014532        -2.287838
 H         4.358216         1.237127        -1.285222
 H         3.102132        -0.146199         0.244764
