19
Iteration:  2787charge 0 multiplicity 1
 C         0.379089        -0.692448        -0.260149
 C         1.092649         0.673615        -0.598685
 C         0.420984         1.517272        -1.708081
 C         1.314624         1.986235        -2.843167
 O         2.105269         3.179306        -2.640894
 C         2.749868         1.874566        -2.688375
 C         3.478146         1.068722        -1.461901
 C         2.494240         0.518006        -0.548946
 O         1.611489         1.254669         0.527090
 H         0.353271        -1.392803        -1.062840
 H         0.858659        -1.285533         0.674275
 H        -0.628038        -0.430122         0.061548
 H        -0.419914         1.175472        -2.125256
 H         0.051078         2.411514        -1.177942
 H         0.744848         2.099373        -3.848304
 H         3.385544         1.723042        -3.584300
 H         4.057233         0.265162        -2.033571
 H         4.141430         1.740046        -1.057033
 H         2.861815        -0.447238        -0.102067
