19
Iteration:   273charge 0 multiplicity 1
 C         0.122000        -0.369211         0.050837
 C         1.122051         0.507715        -0.683581
 C         0.417641         1.347715        -1.782539
 C         1.258471         2.300816        -2.623039
 O         2.091768         3.194244        -1.985152
 C         2.748884         2.080484        -2.702102
 C         3.268793         0.833128        -2.001298
 C         2.538773         0.239558        -0.863199
 O         2.096500         1.228322         0.295869
 H         0.526343        -0.977659         0.919303
 H        -0.665725         0.292019         0.448686
 H        -0.497237        -1.092362        -0.723026
 H        -0.078438         0.592744        -2.479544
 H        -0.349657         1.947246        -1.293006
 H         0.780291         2.650359        -3.460549
 H         3.186899         2.409730        -3.597179
 H         3.315930         0.003957        -2.768410
 H         4.262340         1.006537        -1.635493
 H         2.838553        -0.723877        -0.499031
