19
Iteration:   679charge 0 multiplicity 1
 C         0.068182        -0.436297         0.025147
 C         1.090505         0.550238        -0.657590
 C         0.483236         1.555713        -1.618906
 C         1.261906         2.275483        -2.707009
 O         2.101807         3.323114        -2.279854
 C         2.651839         1.993633        -2.720562
 C         3.347638         1.010987        -1.778400
 C         2.505763         0.190980        -0.876345
 O         2.109246         0.906719         0.317987
 H        -0.577475         0.011434         0.850533
 H        -0.676002        -0.771902        -0.703044
 H         0.697473        -1.383458         0.467269
 H        -0.339062         1.153026        -2.056398
 H        -0.066543         2.289954        -0.989342
 H         0.656017         2.319545        -3.609101
 H         3.133868         2.201111        -3.694184
 H         3.950742         0.290387        -2.395665
 H         4.108062         1.523656        -1.195230
 H         2.875427        -0.855307        -0.668603
