19
Iteration:  2154charge 0 multiplicity 1
 C         0.279490        -0.704986        -0.108262
 C         1.021932         0.561685        -0.727175
 C         0.344828         1.417945        -1.832371
 C         1.300659         2.069114        -2.801844
 O         2.254541         3.075633        -2.297489
 C         2.759473         1.807684        -2.738805
 C         3.460092         1.122299        -1.532635
 C         2.532763         0.567268        -0.520500
 O         1.632995         1.421033         0.260322
 H         0.473688        -1.552787        -0.701455
 H         0.781027        -0.787136         0.811954
 H        -0.728497        -0.645212         0.246254
 H        -0.301564         0.776938        -2.377704
 H        -0.305549         2.202951        -1.317537
 H         0.847596         2.360229        -3.716143
 H         3.395319         1.764918        -3.657009
 H         4.094286         0.333390        -1.934016
 H         4.168935         1.890023        -1.165222
 H         3.014889        -0.228804         0.153544
