19
Iteration:  2296charge 0 multiplicity 1
 C         0.278208        -0.612161         0.072136
 C         1.017871         0.474571        -0.670513
 C         0.452636         1.191056        -2.005078
 C         1.397188         2.151625        -2.829661
 O         2.217084         3.215707        -2.229248
 C         2.825231         1.981171        -2.688302
 C         3.393031         0.952729        -1.714571
 C         2.484347         0.509053        -0.484856
 O         1.559742         1.483849         0.257099
 H         0.057221        -1.556140        -0.401030
 H         0.693595        -0.876834         1.069054
 H        -0.642972        -0.159186         0.479166
 H         0.179128         0.397185        -2.665375
 H        -0.460255         1.827145        -1.719366
 H         0.997649         2.263261        -3.783704
 H         3.603149         2.111449        -3.456111
 H         3.707202         0.083108        -2.296828
 H         4.365033         1.380346        -1.364916
 H         2.918949        -0.276995         0.155820
