19
Iteration:  3170
 C         0.095154        -0.644001        -0.428055
 C         1.023386         0.609118        -0.593146
 C         0.424109         1.629254        -1.548694
 C         1.282935         1.816402        -2.764680
 O         2.129854         3.072764        -2.914351
 C         2.761876         1.890905        -2.621260
 C         3.507040         1.467213        -1.281638
 C         2.592182         0.554125        -0.531084
 O         1.821037         1.037364         0.521880
 H        -0.129539        -1.061392        -1.423852
 H         0.560086        -1.410018         0.202052
 H        -0.991339        -0.416311         0.012001
 H        -0.593925         1.241668        -1.732452
 H         0.343241         2.494573        -1.007494
 H         0.777712         1.553903        -3.701353
 H         3.527223         1.446042        -3.365590
 H         4.339402         0.801171        -1.644716
 H         3.830484         2.441900        -0.774024
 H         2.920711        -0.585010        -0.457069
