19
Iteration:  3519
 C         0.103806        -0.535161        -0.053199
 C         1.040817         0.547931        -0.660664
 C         0.517365         1.345654        -1.845603
 C         1.397881         2.024311        -2.930687
 O         2.005290         3.189557        -2.438443
 C         2.842577         1.989095        -2.688367
 C         3.424349         1.165759        -1.525731
 C         2.464509         0.447530        -0.535000
 O         1.851921         1.215652         0.418481
 H        -0.110909        -1.465161        -0.725445
 H         0.668675        -0.798060         0.822264
 H        -1.001750        -0.273701         0.259104
 H        -0.124725         0.571591        -2.472028
 H        -0.195964         2.000912        -1.497175
 H         1.063336         2.135296        -3.939016
 H         3.462933         1.988709        -3.593193
 H         4.144466         0.505337        -1.981380
 H         4.018827         1.694127        -0.757108
 H         2.899522        -0.510045        -0.312661
