19
Iteration:  1893
 C         0.104462        -0.552457        -0.168124
 C         1.018744         0.591392        -0.562633
 C         0.468082         1.291393        -1.772826
 C         1.381283         1.886781        -2.891537
 O         2.042226         3.206933        -2.579849
 C         2.817790         2.039256        -2.668730
 C         3.526374         1.202182        -1.491359
 C         2.502712         0.461046        -0.530236
 O         1.789899         1.268477         0.487816
 H        -0.319960        -1.137270        -1.008797
 H         0.802639        -1.229842         0.569824
 H        -0.714583        -0.067752         0.443768
 H        -0.106841         0.545250        -2.558063
 H        -0.347760         1.997364        -1.535452
 H         0.910796         1.897678        -3.856657
 H         3.364980         1.900165        -3.533323
 H         3.940706         0.438551        -2.179020
 H         4.454130         1.633540        -1.066651
 H         2.903152        -0.462191        -0.161030
