19
Iteration:    88
 C         0.136091        -0.660627         0.028998
 C         0.990607         0.496113        -0.652900
 C         0.399897         1.613318        -1.499540
 C         1.287298         2.348584        -2.527328
 O         2.379677         3.275123        -2.412080
 C         2.656859         1.929310        -2.857737
 C         3.298156         1.100806        -1.824834
 C         2.481703         0.297016        -0.818953
 O         1.921801         0.991297         0.313836
 H         0.821316        -1.181143         0.640864
 H        -0.624822        -0.321608         0.684717
 H        -0.223954        -1.408448        -0.703863
 H        -0.206927         1.102599        -2.249271
 H        -0.193760         2.263867        -0.918342
 H         0.783513         2.571627        -3.430223
 H         2.911007         1.807741        -3.913961
 H         4.048952         0.422744        -2.299658
 H         3.919328         1.783968        -1.249339
 H         2.980706        -0.650397        -0.551148
