19
Iteration:  1597
 C         0.224356        -0.611148        -0.016671
 C         0.992076         0.548647        -0.694571
 C         0.374845         1.403638        -1.753300
 C         1.356415         2.021014        -2.759342
 O         2.064997         3.190154        -2.325697
 C         2.772394         1.964986        -2.671031
 C         3.515483         1.052230        -1.607355
 C         2.503618         0.483378        -0.648237
 O         1.829044         1.291636         0.223057
 H        -0.828603        -0.353239         0.199955
 H         0.266835        -1.415680        -0.682291
 H         0.537096        -0.744374         0.930664
 H        -0.367297         0.815720        -2.284264
 H        -0.099916         2.310729        -1.286529
 H         0.942138         2.065056        -3.858161
 H         3.286230         2.029201        -3.769730
 H         4.076758         0.164071        -1.978212
 H         4.204420         1.668002        -0.994505
 H         2.843146        -0.447863        -0.218657
