19
Iteration:  4416
 C         0.229701        -0.593321        -0.083197
 C         1.004704         0.473617        -0.706009
 C         0.373857         1.356823        -1.905000
 C         1.356440         2.088718        -2.880450
 O         2.138071         3.162492        -2.392168
 C         2.815944         1.938770        -2.631432
 C         3.453040         1.107731        -1.502716
 C         2.523744         0.516178        -0.452957
 O         1.720470         1.319800         0.322682
 H        -0.256355        -1.146366        -0.855377
 H         0.877211        -1.251879         0.357967
 H        -0.591416        -0.170033         0.629541
 H        -0.138580         0.584963        -2.501690
 H        -0.450028         1.917870        -1.230096
 H         1.053384         2.215047        -3.926053
 H         3.323410         1.821533        -3.645437
 H         4.033361         0.310527        -2.073342
 H         4.269197         1.813128        -1.065630
 H         3.086761        -0.318209        -0.023782
