19
Iteration:  4941charge 0 multiplicity 1
 C         0.134379        -0.421231        -0.020886
 C         1.001847         0.534837        -0.738629
 C         0.459396         1.068382        -1.976346
 C         1.336460         2.044931        -2.721435
 O         2.108925         3.100532        -2.053315
 C         2.830216         1.993276        -2.697044
 C         3.494966         1.082314        -1.688735
 C         2.516009         0.501006        -0.583704
 O         1.757768         1.457100         0.226279
 H         0.086195        -1.331485        -0.619089
 H         0.500427        -0.698672         1.015362
 H        -0.915257         0.058271         0.052378
 H         0.452316         0.199991        -2.608133
 H        -0.690536         1.391032        -1.888392
 H         0.865709         2.382458        -3.763449
 H         3.406544         2.219267        -3.655301
 H         3.875980         0.178176        -2.305368
 H         4.426895         1.553118        -1.236176
 H         2.880489        -0.358594        -0.016255
