19
Iteration:  3262charge 0 multiplicity 1
 C         0.228789        -0.636813        -0.579416
 C         1.081637         0.599191        -0.536195
 C         0.460397         1.697897        -1.413260
 C         1.316185         1.870702        -2.740680
 O         2.162208         2.972048        -2.967044
 C         2.780943         1.802965        -2.713953
 C         3.382904         1.493416        -1.345866
 C         2.558472         0.564563        -0.493703
 O         1.673952         1.044471         0.642582
 H         0.000477        -0.867581        -1.668595
 H         0.739169        -1.508151        -0.011226
 H        -0.814401        -0.435324        -0.116508
 H        -0.489676         1.390418        -1.779686
 H         0.415850         2.710150        -0.804776
 H         0.730411         1.562932        -3.626757
 H         3.332768         1.411172        -3.579334
 H         4.290029         0.829177        -1.512692
 H         3.718951         2.412208        -0.861370
 H         3.020211        -0.333669        -0.361465
