19
Iteration:  2641charge 0 multiplicity 1
 C         0.272519        -0.480561        -0.030814
 C         1.083059         0.515770        -0.737939
 C         0.427046         1.183234        -1.914844
 C         1.286545         2.117256        -2.765875
 O         2.117096         2.971972        -2.009941
 C         2.823617         1.864522        -2.739017
 C         3.445891         1.007823        -1.655434
 C         2.520643         0.590561        -0.506868
 O         1.662208         1.547984         0.078933
 H        -0.250127        -1.276353        -0.768006
 H         0.808330        -1.121935         0.605462
 H        -0.478616         0.059985         0.626127
 H         0.399671         0.415618        -2.636407
 H        -0.656766         1.510517        -1.751565
 H         0.931050         2.591669        -3.683692
 H         3.291318         2.236031        -3.610149
 H         3.958496         0.118948        -2.054596
 H         4.154934         1.801325        -1.239837
 H         3.092285        -0.085701         0.233132
