19
Iteration:  1259charge 0 multiplicity 1
 C         0.226422        -0.495370         0.128807
 C         0.993878         0.537137        -0.670977
 C         0.352304         1.398281        -1.718380
 C         1.297946         2.152639        -2.641360
 O         2.241540         3.204129        -2.059510
 C         2.777557         2.055372        -2.692943
 C         3.350912         0.925756        -1.900147
 C         2.482779         0.310003        -0.836188
 O         1.880752         1.249748         0.105986
 H        -0.725859        -0.902014        -0.417841
 H         0.901355        -1.423684         0.393263
 H        -0.182791         0.045511         1.015508
 H        -0.238152         0.691688        -2.462443
 H        -0.345317         2.156776        -1.281928
 H         0.793800         2.521104        -3.493209
 H         3.240182         2.247267        -3.632383
 H         3.561346         0.127186        -2.570293
 H         4.266529         1.300519        -1.438009
 H         3.033683        -0.480747        -0.268342
