19
Iteration:  4024charge 0 multiplicity 1
 C         0.141966        -0.535529        -0.148488
 C         1.042754         0.593467        -0.580152
 C         0.450003         1.268483        -1.764385
 C         1.350768         1.970895        -2.756920
 O         2.123117         3.219937        -2.470871
 C         2.814424         1.968619        -2.707978
 C         3.476312         1.169884        -1.606503
 C         2.538491         0.460943        -0.548904
 O         1.720162         1.279519         0.390645
 H         0.074185        -1.209105        -0.936984
 H         0.543741        -0.966069         0.725141
 H        -0.917565        -0.295336        -0.009838
 H         0.006034         0.357653        -2.381339
 H        -0.360675         1.780044        -1.428934
 H         0.988965         2.084583        -3.767810
 H         3.240131         2.044219        -3.745600
 H         4.053221         0.353099        -1.979090
 H         4.166890         1.808225        -1.021569
 H         2.971623        -0.551438        -0.194509
