19
Iteration:  1490charge 0 multiplicity 1
 C         0.324246        -0.516733         0.106058
 C         0.977600         0.533452        -0.765274
 C         0.310710         1.303820        -1.916754
 C         1.309019         2.170498        -2.738419
 O         2.083497         3.140949        -2.049870
 C         2.870533         1.986223        -2.626011
 C         3.465494         0.868395        -1.701148
 C         2.468362         0.427305        -0.706857
 O         1.793699         1.398563         0.068576
 H         0.350269        -1.570899        -0.315067
 H         0.945771        -0.297168         1.144151
 H        -0.628388        -0.195961         0.495599
 H        -0.243856         0.563625        -2.474511
 H        -0.535689         2.001377        -1.601956
 H         0.938761         2.637471        -3.631884
 H         3.385495         2.300159        -3.475986
 H         3.693426        -0.004316        -2.365118
 H         4.424020         1.127150        -1.205402
 H         2.955989        -0.316180        -0.079561
