19
Iteration:  1301charge 0 multiplicity 1
 C         0.288733        -0.546461        -0.095373
 C         1.056118         0.585167        -0.675870
 C         0.371235         1.541768        -1.649103
 C         1.225763         2.186997        -2.688503
 O         2.245690         3.131032        -2.162956
 C         2.674605         1.890744        -2.740309
 C         3.355589         0.938121        -1.819370
 C         2.515833         0.392397        -0.658642
 O         1.861328         1.256201         0.233981
 H        -0.818821        -0.517515        -0.231719
 H         0.577225        -1.466946        -0.667868
 H         0.621907        -0.664478         0.981967
 H        -0.364551         0.990867        -2.169449
 H        -0.299573         2.258470        -1.123787
 H         0.804162         2.456728        -3.691747
 H         3.134029         2.003619        -3.663440
 H         3.735114         0.109218        -2.412666
 H         4.224183         1.426272        -1.395570
 H         2.861138        -0.504952        -0.218992
