19
Iteration:  1062
 C         0.147459        -0.597752        -0.020369
 C         0.993529         0.527270        -0.669018
 C         0.405105         1.652317        -1.521164
 C         1.329651         2.190302        -2.615497
 O         2.114241         3.296246        -2.351633
 C         2.751799         1.993503        -2.761549
 C         3.389208         0.993862        -1.795030
 C         2.473976         0.271606        -0.839831
 O         1.991450         1.035334         0.297163
 H         0.272227        -0.514784         1.117629
 H        -0.952492        -0.679231        -0.351904
 H         0.592552        -1.544549        -0.251002
 H        -0.635754         1.534771        -1.934265
 H         0.277178         2.384657        -0.761086
 H         0.753196         2.382356        -3.489715
 H         3.073272         1.932650        -3.894245
 H         3.839348         0.253363        -2.568918
 H         4.289201         1.472505        -1.250360
 H         2.953165        -0.752007        -0.465118
