19
Iteration:  1962charge 0 multiplicity 1
 C         0.222018        -0.701306        -0.063139
 C         1.016787         0.478585        -0.728085
 C         0.288473         1.348762        -1.818106
 C         1.362325         2.000123        -2.695309
 O         2.217061         3.200351        -2.415812
 C         2.815042         1.898127        -2.761210
 C         3.530993         1.147064        -1.566294
 C         2.461618         0.510516        -0.494718
 O         1.697801         1.449978         0.284103
 H         0.485469        -1.680709        -0.429223
 H         0.677088        -0.699996         1.036232
 H        -0.833452        -0.494932        -0.083414
 H        -0.230998         0.565686        -2.558474
 H        -0.440587         2.079659        -1.471146
 H         0.804467         2.231915        -3.707044
 H         3.316115         1.829503        -3.798411
 H         4.093596         0.260161        -1.908386
 H         4.278197         1.695452        -1.002987
 H         2.880092        -0.215077         0.160769
