19
Iteration:   344
 C         0.105259        -0.484378         0.039738
 C         1.053275         0.452270        -0.712679
 C         0.356773         1.470467        -1.674642
 C         1.252658         2.184571        -2.618080
 O         2.176544         3.222628        -2.030987
 C         2.711864         2.016811        -2.695329
 C         3.387540         0.933641        -1.949627
 C         2.624369         0.291326        -0.810443
 O         1.946905         1.210506         0.131592
 H         0.589187        -1.387020         0.506223
 H        -0.276492         0.137556         0.915001
 H        -0.727445        -0.685321        -0.487045
 H        -0.527470         1.142926        -2.094240
 H         0.102060         2.207144        -0.896184
 H         0.935416         2.464011        -3.708990
 H         3.155696         2.175837        -3.802914
 H         3.496599         0.118963        -2.674198
 H         4.418906         1.219124        -1.508946
 H         3.001536        -0.552638        -0.192667
