19
Iteration:  1139
 C         0.209663        -0.572315         0.008800
 C         1.028001         0.547602        -0.699600
 C         0.323557         1.452302        -1.694641
 C         1.276898         2.291906        -2.522312
 O         2.334314         3.149888        -2.076646
 C         2.640011         1.896932        -2.815520
 C         3.354866         0.966845        -1.861785
 C         2.491684         0.363321        -0.777420
 O         1.912424         1.257741         0.167954
 H         0.851898        -1.474536         0.232076
 H        -0.153310        -0.315208         1.045800
 H        -0.550060        -0.866140        -0.582243
 H        -0.377490         1.024271        -2.478368
 H        -0.385604         2.081873        -1.170235
 H         0.850869         2.564346        -3.434832
 H         3.012203         2.105074        -3.836161
 H         3.700118         0.186924        -2.615871
 H         4.249906         1.493969        -1.391903
 H         3.003091        -0.530907        -0.262780
