19
Iteration:  4083
 C         0.292953        -0.696389        -0.235198
 C         1.044717         0.556981        -0.715357
 C         0.428604         1.581425        -1.603903
 C         1.349630         1.899950        -2.771580
 O         2.103299         3.096672        -2.605352
 C         2.832604         1.893997        -2.698423
 C         3.484955         1.217322        -1.470383
 C         2.472284         0.574355        -0.577709
 O         1.603381         1.248153         0.426226
 H        -0.039948        -1.340221        -1.133733
 H         0.963322        -1.401732         0.307993
 H        -0.464283        -0.367452         0.416068
 H        -0.551492         1.255474        -1.907037
 H         0.346121         2.574391        -0.960469
 H         0.942756         1.845318        -3.836672
 H         3.399028         1.737328        -3.596658
 H         4.174126         0.335779        -1.686708
 H         4.153445         1.979908        -1.029031
 H         2.927073        -0.317985        -0.230309
