19
Iteration:  3461charge 0 multiplicity 1
 C         0.230742        -0.723464        -0.393653
 C         1.025106         0.556450        -0.642648
 C         0.328051         1.626978        -1.569181
 C         1.304874         1.917756        -2.758217
 O         2.212776         3.015076        -2.539365
 C         2.789455         1.703826        -2.743168
 C         3.471887         1.370750        -1.483279
 C         2.587856         0.597896        -0.551513
 O         1.682125         1.278740         0.426867
 H         0.071185        -1.292340        -1.374858
 H         0.734792        -1.535164         0.271113
 H        -0.669336        -0.439127         0.160947
 H        -0.654736         1.346827        -1.839993
 H         0.289667         2.563538        -0.900620
 H         0.828912         2.005150        -3.770656
 H         3.237984         1.452823        -3.707618
 H         4.345874         0.722538        -1.725906
 H         3.803020         2.281319        -0.899104
 H         2.874304        -0.263780        -0.104000
