19
Iteration:   618charge 0 multiplicity 1
 C         0.098061        -0.443381         0.010833
 C         1.106324         0.467446        -0.711004
 C         0.381723         1.470411        -1.639402
 C         1.172030         2.351127        -2.534284
 O         2.199597         3.176402        -2.024089
 C         2.693308         1.988130        -2.813748
 C         3.378160         0.858474        -1.956555
 C         2.599638         0.247809        -0.763322
 O         1.979944         1.197619         0.125151
 H        -0.417846         0.165615         0.756110
 H        -0.584310        -0.914536        -0.738843
 H         0.482826        -1.157079         0.529919
 H        -0.229092         0.821721        -2.375070
 H        -0.148023         2.101551        -0.953528
 H         0.630237         2.741289        -3.406111
 H         3.238463         2.216627        -3.731139
 H         3.841824         0.049375        -2.487503
 H         4.167763         1.447546        -1.437932
 H         3.040446        -0.590606        -0.268957
