19
Iteration:   979charge 0 multiplicity 1
 C         0.089817        -0.578237        -0.147043
 C         1.024140         0.523663        -0.619489
 C         0.373992         1.628317        -1.473104
 C         1.265735         2.187514        -2.622519
 O         2.126275         3.321594        -2.230522
 C         2.672170         1.972299        -2.760657
 C         3.407913         0.907632        -1.952301
 C         2.502026         0.308711        -0.741223
 O         2.149932         1.074625         0.322254
 H        -0.966920        -0.289244        -0.350128
 H         0.189234        -1.454968        -0.826828
 H         0.332441        -0.889151         0.835000
 H        -0.691414         1.388477        -1.990473
 H         0.308271         2.511191        -0.717231
 H         0.639036         2.393209        -3.498209
 H         3.092033         2.189389        -3.746196
 H         3.452250         0.078182        -2.661072
 H         4.412248         1.147461        -1.677971
 H         2.834246        -0.663155        -0.417944
