19
Iteration:   715
 C         0.068339        -0.581697        -0.193234
 C         1.065090         0.524892        -0.657710
 C         0.437814         1.617265        -1.427403
 C         1.218706         2.289569        -2.454691
 O         2.252998         3.167306        -2.240499
 C         2.587585         1.868169        -2.854888
 C         3.412908         1.009069        -1.908990
 C         2.593790         0.411093        -0.788504
 O         1.969556         1.074150         0.273667
 H        -0.849181        -0.026588         0.366491
 H        -0.241580        -1.268024        -1.095426
 H         0.522055        -1.246417         0.522809
 H        -0.405147         1.122685        -1.954877
 H         0.150397         2.363000        -0.640241
 H         0.721254         2.550202        -3.377948
 H         2.880905         1.900099        -3.831422
 H         3.811860         0.116270        -2.482738
 H         4.257770         1.612005        -1.508342
 H         3.027550        -0.500930        -0.488135
