19
Iteration:  2913charge 0 multiplicity 1
 C         0.092577        -0.391188         0.062502
 C         1.063715         0.469715        -0.735821
 C         0.497247         1.022288        -2.015937
 C         1.367267         2.057222        -2.766112
 O         1.975911         3.178968        -2.184282
 C         2.790708         2.129728        -2.528575
 C         3.477600         1.009236        -1.693394
 C         2.557021         0.445197        -0.610615
 O         1.851064         1.408311         0.208125
 H        -0.247963        -1.393712        -0.396997
 H         0.442595        -0.443751         1.044240
 H        -0.892911         0.100698         0.125208
 H         0.336106         0.124091        -2.659148
 H        -0.421612         1.438426        -1.808729
 H         0.964738         2.234806        -3.814473
 H         3.452881         2.389630        -3.393508
 H         3.878155         0.260243        -2.341103
 H         4.222238         1.541867        -1.032652
 H         2.916759        -0.398693        -0.034494
