19
Iteration:  3373
 C         0.116178        -0.583219        -0.327407
 C         1.081067         0.536015        -0.695233
 C         0.609994         1.654791        -1.541343
 C         1.299930         1.871787        -2.858845
 O         2.103010         3.107056        -2.811948
 C         2.809960         1.762165        -2.709698
 C         3.259029         1.476944        -1.307342
 C         2.545629         0.392171        -0.506205
 O         1.831175         1.026948         0.512253
 H        -0.043699        -1.325475        -1.203085
 H         0.455217        -1.176703         0.660225
 H        -0.897053        -0.208210        -0.096239
 H        -0.423641         1.604510        -1.812711
 H         0.639497         2.700752        -1.051473
 H         0.868571         1.931178        -3.870940
 H         3.454316         1.546611        -3.575497
 H         4.359821         1.604278        -1.182157
 H         2.971601         2.452961        -0.845417
 H         3.046326        -0.471831        -0.272583
