19
Iteration:  2754
 C         0.058695        -0.635777        -0.233638
 C         1.074973         0.499618        -0.629635
 C         0.383651         1.449106        -1.673737
 C         1.295149         1.876169        -2.756906
 O         2.099379         3.084824        -2.527177
 C         2.842747         1.892818        -2.723175
 C         3.484232         1.349392        -1.456520
 C         2.585226         0.488705        -0.605804
 O         1.830379         1.289934         0.351370
 H         0.097376        -1.500462        -0.871829
 H         0.216331        -1.019926         0.893677
 H        -0.908311        -0.148715        -0.298283
 H        -0.458863         1.069667        -2.134015
 H         0.118482         2.345292        -1.081113
 H         0.760649         2.035344        -3.770350
 H         3.378104         1.876570        -3.700670
 H         4.457788         0.731681        -1.655762
 H         3.761184         2.162745        -0.845231
 H         3.044088        -0.444223        -0.163885
