19
Iteration:  4869
 C         0.006162        -0.377742         0.082731
 C         1.047398         0.459746        -0.711488
 C         0.526566         1.056424        -2.000190
 C         1.396742         2.024220        -2.808189
 O         2.013574         3.146199        -2.076988
 C         2.848096         2.105653        -2.655513
 C         3.480744         1.088972        -1.649366
 C         2.579885         0.424608        -0.624580
 O         1.773020         1.397959         0.142944
 H        -0.458079        -1.264468        -0.439599
 H         0.632536        -0.988703         0.838680
 H        -0.769883         0.274696         0.514631
 H         0.131765         0.176167        -2.724057
 H        -0.470464         1.624689        -1.658789
 H         1.026871         2.432678        -3.661668
 H         3.438903         2.370106        -3.490034
 H         3.903176         0.276218        -2.304629
 H         4.320199         1.536881        -1.118041
 H         3.066780        -0.373052         0.000515
