19
Iteration:  2788charge 0 multiplicity 1
 C         0.390535        -0.694933        -0.258094
 C         1.087106         0.680471        -0.605655
 C         0.416276         1.520066        -1.708404
 C         1.320627         1.989606        -2.837302
 O         2.107806         3.176016        -2.639649
 C         2.750995         1.878014        -2.699385
 C         3.474607         1.068790        -1.464813
 C         2.502970         0.513925        -0.547126
 O         1.602047         1.256440         0.538744
 H         0.322543        -1.360770        -1.083476
 H         0.882094        -1.283633         0.675219
 H        -0.639019        -0.463290         0.072055
 H        -0.462056         1.128346        -2.125219
 H         0.059667         2.398499        -1.192342
 H         0.715248         2.121674        -3.865325
 H         3.416018         1.702106        -3.626432
 H         4.047112         0.245906        -2.038837
 H         4.172659         1.729835        -1.046418
 H         2.840196        -0.454464        -0.092728
