19
Iteration:   187charge 0 multiplicity 1
 C         0.233823        -0.552650        -0.070990
 C         1.037294         0.563622        -0.649989
 C         0.356993         1.531526        -1.629707
 C         1.225966         2.366699        -2.594887
 O         2.291353         3.248291        -2.204520
 C         2.627227         1.919054        -2.808214
 C         3.348164         0.881786        -1.880447
 C         2.459759         0.311001        -0.770440
 O         1.968209         1.106170         0.337894
 H         0.912556        -0.965683         0.688661
 H        -0.668624        -0.299388         0.393432
 H         0.034784        -1.275037        -0.780875
 H        -0.351621         0.992823        -2.221942
 H        -0.193451         2.254298        -1.066914
 H         0.758855         2.678947        -3.512815
 H         3.045963         1.997018        -3.821282
 H         3.849235         0.104409        -2.486080
 H         4.209060         1.393454        -1.399278
 H         2.823816        -0.654297        -0.452314
