19
Iteration:  3597charge 0 multiplicity 1
 C         0.262737        -0.484961         0.025063
 C         0.985359         0.620953        -0.743056
 C         0.460781         1.013630        -2.074180
 C         1.339233         1.993195        -2.750104
 O         2.166382         3.096906        -2.026050
 C         2.829306         2.064558        -2.567787
 C         3.407669         0.928517        -1.756664
 C         2.476754         0.567320        -0.573722
 O         1.660095         1.556578         0.188463
 H        -0.092327        -1.412585        -0.475863
 H         1.013114        -0.796741         0.819355
 H        -0.545896         0.050209         0.667030
 H         0.613226         0.156005        -2.781874
 H        -0.457391         1.425345        -2.079323
 H         1.017818         2.477703        -3.640727
 H         3.511960         2.489669        -3.322358
 H         3.325510         0.127677        -2.503176
 H         4.440601         0.953709        -1.423088
 H         2.836746        -0.203707         0.045963
