19
Iteration:  2656
 C         0.203004        -0.570483        -0.016329
 C         1.050483         0.528209        -0.740754
 C         0.396604         1.187736        -1.991799
 C         1.315716         2.012851        -2.781682
 O         2.138695         3.017942        -2.042151
 C         2.768284         1.878074        -2.669247
 C         3.501554         1.075870        -1.647103
 C         2.622630         0.626321        -0.529675
 O         1.650683         1.541345         0.131050
 H        -0.400847        -1.052043        -0.703846
 H         0.891467        -1.298753         0.532847
 H        -0.473257        -0.100480         0.661628
 H        -0.290528         0.542336        -2.568933
 H        -0.151707         1.989275        -1.527351
 H         0.891253         2.423970        -3.775344
 H         3.350868         2.100902        -3.600855
 H         3.933496         0.158526        -2.167198
 H         4.340561         1.641610        -1.355416
 H         3.011788        -0.064256         0.216346
