19
Iteration:  3722charge 0 multiplicity 1
 C         0.202847        -0.623962        -0.210633
 C         1.096444         0.553381        -0.634374
 C         0.383193         1.418633        -1.676298
 C         1.300460         2.020033        -2.768666
 O         2.167219         3.263660        -2.732443
 C         2.773548         1.943754        -2.669213
 C         3.548887         1.160807        -1.449100
 C         2.547429         0.450093        -0.485296
 O         1.642172         1.201366         0.440591
 H        -0.252957        -1.236371        -1.054802
 H         0.755848        -1.277350         0.424882
 H        -0.614821        -0.226779         0.344956
 H        -0.388968         0.801864        -2.350842
 H        -0.208927         2.262352        -1.225520
 H         0.841096         1.966646        -3.821244
 H         3.377494         1.622781        -3.529893
 H         4.154144         0.321583        -1.850627
 H         4.264792         1.859890        -1.038798
 H         2.922887        -0.451803         0.102002
