19
Iteration:   153
 C        -0.022740        -0.413491        -0.121351
 C         1.116304         0.440514        -0.612394
 C         0.425906         1.519292        -1.486152
 C         1.172656         2.176853        -2.684664
 O         2.078826         3.169480        -2.275951
 C         2.798800         2.077703        -2.692044
 C         3.460905         0.978984        -1.869467
 C         2.602196         0.320229        -0.841559
 O         2.022002         1.082192         0.302237
 H         0.292085        -1.306757         0.267146
 H        -0.564939         0.110538         0.625898
 H        -0.573850        -0.730725        -1.024949
 H        -0.636525         1.300835        -1.662381
 H         0.381100         2.227780        -0.725294
 H         0.658493         2.243471        -3.578880
 H         3.179037         2.286914        -3.649545
 H         3.723513         0.156349        -2.616155
 H         4.359469         1.262779        -1.283832
 H         2.966430        -0.634968        -0.467942
