19
Iteration:   137
 C         0.024609        -0.409170        -0.151081
 C         1.096877         0.573412        -0.664881
 C         0.428331         1.620134        -1.501665
 C         1.267541         2.035373        -2.667700
 O         2.004678         3.228475        -2.207773
 C         2.682366         1.980086        -2.745407
 C         3.481892         1.010817        -1.802884
 C         2.533333         0.234287        -0.822149
 O         2.112992         1.013208         0.301255
 H         0.418441        -1.421146         0.299151
 H        -0.549486         0.101616         0.701496
 H        -0.819571        -0.490811        -0.920316
 H        -0.508185         1.210933        -1.944783
 H         0.222412         2.643409        -1.036244
 H         0.729760         2.294687        -3.646701
 H         3.211242         2.228608        -3.717101
 H         4.083851         0.359165        -2.458251
 H         4.294724         1.589210        -1.319722
 H         2.899931        -0.783777        -0.566489
