19
Iteration:  2804
 C         0.386716        -0.678883        -0.285674
 C         1.025246         0.585871        -0.591039
 C         0.373150         1.544702        -1.673097
 C         1.300134         2.007879        -2.824179
 O         2.202323         3.118609        -2.564383
 C         2.830801         1.835158        -2.790367
 C         3.418356         1.176997        -1.601324
 C         2.449258         0.555325        -0.425031
 O         1.605409         1.278087         0.550764
 H         0.383640        -1.362683        -1.216905
 H         1.114966        -1.195537         0.205484
 H        -0.525080        -0.647319         0.344708
 H        -0.479495         0.865049        -2.239333
 H        -0.208935         2.396797        -1.208887
 H         0.934140         1.929098        -3.820992
 H         3.326556         1.835373        -3.763657
 H         3.806036         0.250909        -1.969576
 H         4.372330         1.721571        -1.165078
 H         2.976715        -0.308776        -0.041496
