19
Iteration:  2829
 C         0.219118        -0.759537        -0.283393
 C         1.122597         0.515818        -0.640454
 C         0.393669         1.407866        -1.693555
 C         1.256309         2.021673        -2.751447
 O         2.220491         3.123071        -2.445871
 C         2.752572         1.752090        -2.772532
 C         3.484593         1.221040        -1.546615
 C         2.509265         0.593776        -0.491697
 O         1.667314         1.458116         0.388187
 H         0.050781        -1.265218        -1.226320
 H         0.793608        -1.595707         0.226645
 H        -0.643452        -0.476224         0.273071
 H        -0.470047         0.883043        -2.112757
 H        -0.055181         2.342877        -1.177245
 H         0.768796         2.250715        -3.627884
 H         3.185739         1.667450        -3.701267
 H         4.112675         0.364769        -1.825492
 H         4.173582         1.930037        -1.095338
 H         3.055993        -0.276888        -0.040961
