19
Iteration:  4040
 C         0.191942        -0.645542        -0.222513
 C         1.018503         0.554621        -0.616777
 C         0.366554         1.343982        -1.785676
 C         1.284444         2.069102        -2.749843
 O         2.205777         3.119820        -2.484341
 C         2.774426         1.816152        -2.729477
 C         3.442823         1.258811        -1.478535
 C         2.499968         0.512520        -0.578962
 O         1.844410         1.338200         0.429111
 H        -0.034316        -1.315511        -1.172341
 H         0.651563        -1.321994         0.574872
 H        -0.751626        -0.259600         0.186736
 H        -0.086622         0.654917        -2.446679
 H        -0.582369         2.041816        -1.478500
 H         0.657236         2.110824        -3.677615
 H         3.361827         1.693306        -3.635722
 H         4.256604         0.603245        -1.930725
 H         3.998267         2.032318        -0.918115
 H         2.824554        -0.329270        -0.061848
