19
Iteration:    58charge 0 multiplicity 1
 C         0.163688        -0.589704        -0.225868
 C         1.105583         0.526512        -0.667859
 C         0.308136         1.586934        -1.457542
 C         1.192851         2.245360        -2.577664
 O         2.276623         3.212533        -2.261955
 C         2.675306         1.950186        -2.846468
 C         3.353031         0.876676        -1.925614
 C         2.579262         0.301768        -0.690352
 O         1.956506         1.207948         0.359095
 H         0.546411        -1.151028         0.778757
 H        -0.782855        -0.112181         0.093833
 H         0.067055        -1.351521        -0.925703
 H        -0.621200         1.219864        -1.847428
 H         0.093415         2.406235        -0.672349
 H         0.685997         2.601122        -3.505275
 H         2.912420         2.094953        -3.857526
 H         3.707376         0.104410        -2.542824
 H         4.252890         1.419328        -1.536058
 H         2.922494        -0.583302        -0.228222
