19
Iteration:  3330
 C         0.099978        -0.685509        -0.428159
 C         1.029284         0.620534        -0.594900
 C         0.436158         1.696609        -1.527791
 C         1.324582         1.922079        -2.702873
 O         2.182685         3.078756        -3.006705
 C         2.818759         1.717734        -2.727684
 C         3.445921         1.567325        -1.256271
 C         2.494947         0.611794        -0.522791
 O         1.807033         0.920473         0.596882
 H        -0.417046        -1.134779        -1.367871
 H         0.911280        -1.393824         0.175571
 H        -0.680332        -0.553922         0.342359
 H        -0.490612         1.192959        -2.049367
 H         0.064781         2.630733        -0.925760
 H         0.805109         1.449907        -3.590356
 H         3.303334         1.322264        -3.646420
 H         4.454224         1.130172        -1.386161
 H         3.664626         2.502853        -0.667787
 H         2.793919        -0.399410        -0.597655
