19
Iteration:  2298charge 0 multiplicity 1
 C         0.270561        -0.621444         0.065302
 C         1.009788         0.461826        -0.693290
 C         0.456861         1.198936        -1.983289
 C         1.399053         2.129389        -2.818927
 O         2.216950         3.211687        -2.216655
 C         2.826254         1.973489        -2.703166
 C         3.400829         0.939719        -1.713113
 C         2.470519         0.553276        -0.476992
 O         1.572644         1.496188         0.252480
 H         0.056120        -1.511738        -0.412857
 H         0.724124        -0.870958         1.112050
 H        -0.671953        -0.220200         0.389414
 H         0.248888         0.409302        -2.658709
 H        -0.545314         1.834388        -1.750624
 H         0.965857         2.291804        -3.744329
 H         3.588400         2.165376        -3.452110
 H         3.666087         0.067968        -2.344094
 H         4.392925         1.371915        -1.379293
 H         2.965425        -0.323404         0.162005
