19
Iteration:  1091charge 0 multiplicity 1
 C         0.151643        -0.518499        -0.198499
 C         1.145147         0.621043        -0.638376
 C         0.462596         1.569663        -1.544606
 C         1.191721         2.150383        -2.711412
 O         2.145751         3.201045        -2.213574
 C         2.636604         1.939170        -2.713004
 C         3.337983         0.919448        -1.839218
 C         2.566232         0.353415        -0.729214
 O         2.011668         1.121687         0.358494
 H         0.290778        -0.825722         0.786099
 H        -0.862842        -0.240208        -0.187255
 H         0.294814        -1.389351        -0.970791
 H        -0.559453         1.186365        -1.978349
 H         0.026500         2.430472        -0.899062
 H         0.666209         2.558976        -3.622675
 H         3.077484         1.941217        -3.643940
 H         3.435750         0.150110        -2.559500
 H         4.299644         1.332796        -1.653049
 H         2.957630        -0.576343        -0.475726
