19
Iteration:  2604charge 0 multiplicity 1
 C         0.136464        -0.475787         0.104535
 C         1.022620         0.516535        -0.651195
 C         0.449830         1.135183        -1.982382
 C         1.405958         2.020836        -2.838620
 O         2.097503         3.204233        -2.134716
 C         2.799785         2.096128        -2.632849
 C         3.381296         1.000612        -1.714905
 C         2.539849         0.486155        -0.559146
 O         1.762948         1.418526         0.161601
 H         0.155580        -1.378170        -0.446926
 H         0.665601        -0.538653         1.140138
 H        -0.907536        -0.191438         0.184662
 H         0.464545         0.114195        -2.591442
 H        -0.604877         1.348962        -2.000394
 H         1.026480         2.118320        -3.833539
 H         3.598881         2.260846        -3.424116
 H         3.698387         0.145493        -2.303058
 H         4.371406         1.256712        -1.258510
 H         2.965887        -0.292273         0.013691
