19
Iteration:  2101charge 0 multiplicity 1
 C         0.129911        -0.537769        -0.052216
 C         1.062411         0.563853        -0.616589
 C         0.448090         1.169027        -1.959858
 C         1.389018         2.040215        -2.855573
 O         2.003267         3.115428        -2.281756
 C         2.851259         2.057382        -2.631604
 C         3.409926         1.022289        -1.594321
 C         2.513744         0.496457        -0.538683
 O         1.837249         1.455277         0.294411
 H        -0.253446        -1.097028        -0.882687
 H         0.447930        -1.330131         0.814382
 H        -0.713253         0.052011         0.226152
 H         0.210573         0.316652        -2.491395
 H        -0.489578         1.685536        -1.715817
 H         1.098006         2.061378        -3.840060
 H         3.563894         2.199005        -3.382380
 H         3.902029         0.316190        -2.275305
 H         4.280340         1.509300        -1.098022
 H         2.887374        -0.421461         0.045043
