19
Iteration:  1407charge 0 multiplicity 1
 C         0.180006        -0.512102        -0.001145
 C         1.041034         0.524848        -0.724927
 C         0.371004         1.426759        -1.707672
 C         1.308215         2.088907        -2.730045
 O         2.135256         3.119638        -2.244178
 C         2.792909         1.967328        -2.730293
 C         3.428831         1.062298        -1.702311
 C         2.468828         0.386089        -0.676463
 O         1.897685         1.287344         0.236740
 H         0.823259        -1.192484         0.493059
 H        -0.533555        -0.076781         0.617726
 H        -0.468286        -1.210917        -0.708797
 H        -0.277478         0.688657        -2.300135
 H        -0.218179         2.192303        -1.181504
 H         0.742016         2.360663        -3.667046
 H         3.460855         2.192891        -3.700928
 H         4.058265         0.264337        -2.175949
 H         4.066413         1.730061        -1.068748
 H         2.770577        -0.639400        -0.302663
