19
Iteration:  2399charge 0 multiplicity 1
 C         0.080526        -0.560512         0.154835
 C         1.008669         0.457405        -0.658071
 C         0.462209         1.247798        -1.896774
 C         1.449371         2.061537        -2.825743
 O         2.046458         3.254959        -2.476614
 C         2.916961         2.020795        -2.693519
 C         3.463185         1.190500        -1.525574
 C         2.476059         0.381092        -0.577212
 O         1.756447         1.287437         0.283215
 H        -0.489995        -1.214233        -0.551286
 H         0.612676        -1.171622         0.857196
 H        -0.836035        -0.126567         0.514096
 H         0.120696         0.518941        -2.638955
 H        -0.453634         1.893312        -1.502073
 H         1.002014         2.204109        -3.850700
 H         3.648813         2.063581        -3.511474
 H         4.011914         0.389594        -2.099173
 H         4.221233         1.900238        -1.125834
 H         3.066158        -0.563574        -0.123510
