19
Iteration:  3019
 C         0.127991        -0.574075        -0.127287
 C         1.058936         0.477256        -0.744087
 C         0.449313         1.321566        -1.804534
 C         1.315114         2.004240        -2.740845
 O         2.107212         3.174294        -2.473613
 C         2.771938         1.884400        -2.636369
 C         3.482692         1.211280        -1.468444
 C         2.540951         0.496737        -0.516955
 O         1.770836         1.325510         0.300226
 H         0.067870        -1.405145        -0.822818
 H         0.655583        -1.060222         0.667982
 H        -0.911583        -0.189429         0.199238
 H        -0.231289         0.738315        -2.483722
 H        -0.337709         2.138715        -1.365321
 H         0.875459         2.152336        -3.782234
 H         3.423349         1.934906        -3.588301
 H         4.187666         0.465733        -2.020930
 H         4.250359         1.815426        -0.992552
 H         3.042651        -0.292333         0.035458
