19
Iteration:  1228charge 0 multiplicity 1
 C         0.043069        -0.267290        -0.007533
 C         1.119236         0.551728        -0.685203
 C         0.402285         1.317902        -1.842979
 C         1.178258         2.229365        -2.650889
 O         2.145907         3.130115        -1.903001
 C         2.632530         1.977862        -2.741217
 C         3.362926         0.901535        -1.979161
 C         2.590861         0.337495        -0.718370
 O         2.102441         1.165577         0.213818
 H        -0.264184        -1.129850        -0.673853
 H         0.500710        -0.684082         0.957409
 H        -0.692010         0.344856         0.230646
 H        -0.064118         0.460015        -2.502087
 H        -0.537130         1.722173        -1.529566
 H         0.705785         2.687151        -3.447323
 H         3.164156         2.345037        -3.688577
 H         3.837567         0.036754        -2.506269
 H         4.215069         1.494005        -1.507496
 H         3.256791        -0.445067        -0.179291
