19
Iteration:  2793
 C         0.428892        -0.697565        -0.238342
 C         1.046950         0.675405        -0.638021
 C         0.393818         1.529638        -1.708165
 C         1.318048         2.008053        -2.832272
 O         2.127725         3.159279        -2.624901
 C         2.786376         1.878054        -2.761632
 C         3.458297         1.090949        -1.506603
 C         2.534882         0.488453        -0.516846
 O         1.574622         1.270187         0.583331
 H         0.221138        -1.267960        -1.220074
 H         0.954126        -1.160573         0.500431
 H        -0.632647        -0.621101         0.113459
 H        -0.575044         0.901915        -2.103481
 H         0.040554         2.464961        -1.202568
 H         0.776221         2.111503        -3.729989
 H         3.391146         1.693010        -3.649998
 H         3.927396         0.241436        -1.959731
 H         4.334927         1.692562        -0.991026
 H         2.748056        -0.447201        -0.055971
