19
Iteration:  1226
 C         0.052052        -0.260986        -0.024010
 C         1.127541         0.564804        -0.673665
 C         0.403956         1.325990        -1.848959
 C         1.189031         2.213108        -2.652289
 O         2.139736         3.125416        -1.896842
 C         2.614622         1.982814        -2.743001
 C         3.349766         0.902735        -1.972912
 C         2.612353         0.318961        -0.720516
 O         2.106363         1.165744         0.212374
 H        -0.220949        -1.146366        -0.709212
 H         0.458427        -0.615400         1.022513
 H        -0.796639         0.397847         0.211654
 H        -0.039828         0.417262        -2.516483
 H        -0.577912         1.748258        -1.551095
 H         0.682957         2.714490        -3.421393
 H         3.138309         2.291654        -3.610489
 H         3.831232         0.124408        -2.519237
 H         4.200841         1.432917        -1.521639
 H         3.241727        -0.448157        -0.186690
