19
Iteration:  3666
 C         0.147596        -0.470683        -0.137985
 C         1.047612         0.586150        -0.731427
 C         0.371589         1.329507        -1.801324
 C         1.305228         1.959284        -2.787583
 O         2.061329         3.022205        -2.239802
 C         2.860022         1.887983        -2.621383
 C         3.523752         1.205588        -1.515899
 C         2.547119         0.437538        -0.646410
 O         1.787934         1.383764         0.205886
 H         0.133935        -1.369401        -0.766936
 H         0.468495        -0.790805         0.907525
 H        -0.878874        -0.121839        -0.012410
 H        -0.147124         0.526382        -2.438677
 H        -0.303622         2.090923        -1.370069
 H         0.935208         2.145073        -3.833862
 H         3.476192         1.935221        -3.545209
 H         4.276178         0.483675        -1.866693
 H         4.010515         1.977475        -0.947508
 H         2.841278        -0.446936        -0.068418
