19
Iteration:  3728
 C         0.177774        -0.650393        -0.234906
 C         1.059290         0.520626        -0.628316
 C         0.334878         1.428212        -1.689916
 C         1.370089         2.057611        -2.794669
 O         2.159494         3.233849        -2.726725
 C         2.759617         1.880404        -2.664055
 C         3.545693         1.158243        -1.448213
 C         2.578608         0.471919        -0.456444
 O         1.669257         1.244193         0.440141
 H        -0.164922        -1.096083        -1.148317
 H         0.860875        -1.420765         0.316387
 H        -0.718670        -0.339815         0.411673
 H        -0.469616         0.893726        -2.055877
 H        -0.273719         2.205427        -1.047626
 H         0.959213         2.145100        -3.755118
 H         3.260691         1.659138        -3.618097
 H         4.263847         0.467800        -1.922324
 H         4.171888         1.988948        -1.023257
 H         2.973735        -0.398564         0.032396
