19
Iteration:   707
 C         0.032680        -0.511405        -0.147583
 C         1.096345         0.478995        -0.708723
 C         0.400946         1.572205        -1.399756
 C         1.202943         2.232133        -2.503525
 O         2.276763         3.206363        -2.283615
 C         2.623044         1.942808        -2.844466
 C         3.414632         1.053059        -1.874749
 C         2.604852         0.323749        -0.768637
 O         1.988569         1.048244         0.291614
 H        -0.780110        -0.023538         0.395822
 H        -0.383084        -1.073311        -1.015187
 H         0.454061        -1.230564         0.451343
 H        -0.593229         1.246313        -2.016421
 H        -0.072457         2.203475        -0.645946
 H         0.511969         2.538330        -3.342771
 H         2.925371         2.077110        -3.908111
 H         3.746455         0.226624        -2.497076
 H         4.344503         1.574996        -1.523316
 H         3.148107        -0.568042        -0.441245
