19
Iteration:  3419
 C         0.244501        -0.655762        -0.443412
 C         1.018786         0.623666        -0.602163
 C         0.416560         1.664770        -1.564944
 C         1.281166         1.946872        -2.773988
 O         2.120379         3.119758        -2.899028
 C         2.809005         1.825467        -2.684744
 C         3.465145         1.321834        -1.378642
 C         2.527856         0.506843        -0.469676
 O         1.738887         1.091831         0.638684
 H         0.096911        -1.168941        -1.469845
 H         0.723599        -1.416536         0.258219
 H        -0.793013        -0.524321        -0.022729
 H        -0.598419         1.283210        -1.925423
 H         0.053987         2.519610        -1.049559
 H         0.979122         1.458671        -3.659203
 H         3.327007         1.635030        -3.628026
 H         4.163273         0.557540        -1.665173
 H         4.137795         2.028045        -0.841587
 H         3.038564        -0.411908        -0.210830
