19
Iteration:  4973
 C         0.142045        -0.610213        -0.057949
 C         1.061411         0.370623        -0.715029
 C         0.468681         1.274850        -1.800424
 C         1.389459         2.106138        -2.816245
 O         2.159219         3.158662        -2.298168
 C         2.820310         1.944312        -2.737985
 C         3.442050         1.119712        -1.574397
 C         2.502742         0.517989        -0.516765
 O         1.674274         1.440784         0.238110
 H        -0.086387        -1.426096        -0.739717
 H         0.473242        -1.077549         0.889266
 H        -0.892913        -0.325836         0.231389
 H        -0.177432         0.615871        -2.339906
 H        -0.211414         2.019791        -1.112140
 H         0.895955         2.309805        -3.871463
 H         3.547074         2.087938        -3.596772
 H         3.927978         0.243521        -2.191042
 H         4.375231         1.652453        -1.230073
 H         2.927814        -0.215559         0.156508
