19
Iteration:  3622charge 0 multiplicity 1
 C         0.167835        -0.562318         0.077573
 C         1.015061         0.542916        -0.641379
 C         0.538245         1.105704        -1.989846
 C         1.406499         2.137586        -2.813421
 O         2.102128         3.122979        -2.126155
 C         2.859300         2.011901        -2.693340
 C         3.353635         0.962026        -1.717526
 C         2.492874         0.553553        -0.565364
 O         1.666417         1.479539         0.186868
 H         0.037914        -1.407559        -0.553071
 H         0.728855        -0.967246         0.993653
 H        -0.775012        -0.168272         0.433241
 H         0.536099         0.238585        -2.729239
 H        -0.298687         1.597243        -1.896396
 H         1.098192         2.664963        -3.755055
 H         3.592205         2.460068        -3.394067
 H         3.466504        -0.014602        -2.244729
 H         4.315188         1.197854        -1.309686
 H         3.028374        -0.098589         0.218029
