19
Iteration:     5
 C         0.185297        -0.434426        -0.031553
 C         1.057663         0.564768        -0.672232
 C         0.324117         1.498342        -1.675441
 C         1.257690         2.250913        -2.624467
 O         2.211015         3.101504        -2.032333
 C         2.683190         1.991100        -2.713661
 C         3.335621         0.859711        -1.945654
 C         2.492084         0.310100        -0.811646
 O         2.055870         1.197832         0.210469
 H         0.845401        -1.066091         0.709964
 H        -0.739436        -0.055284         0.471137
 H        -0.202128        -1.076823        -0.805793
 H        -0.387800         0.952533        -2.307052
 H        -0.387299         2.200280        -1.099224
 H         0.622808         2.652283        -3.427032
 H         3.156496         2.369728        -3.612229
 H         3.682208         0.090535        -2.623993
 H         4.235888         1.372149        -1.487467
 H         2.924840        -0.569766        -0.354365
