19
Iteration:   171
 C         0.080401        -0.543097        -0.074707
 C         1.067841         0.482174        -0.704427
 C         0.452068         1.585506        -1.534894
 C         1.297485         2.173593        -2.624279
 O         2.187457         3.299106        -2.229717
 C         2.660574         1.984770        -2.786378
 C         3.341577         0.979797        -1.889043
 C         2.591120         0.301168        -0.720292
 O         1.979350         1.093516         0.285402
 H         0.467619        -1.298214         0.635570
 H        -0.658010         0.145376         0.488711
 H        -0.524293        -1.202204        -0.890666
 H        -0.464402         1.109048        -2.036772
 H        -0.007385         2.328080        -0.811810
 H         0.628377         2.481411        -3.454200
 H         3.201222         1.991145        -3.761744
 H         3.475901         0.053483        -2.500490
 H         4.312788         1.363599        -1.563483
 H         3.055912        -0.670203        -0.373247
