19
Iteration:   837
 C         0.216994        -0.302086         0.167959
 C         1.061540         0.597134        -0.727536
 C         0.308205         1.388811        -1.806385
 C         1.216510         2.279613        -2.643729
 O         2.102762         3.097931        -1.891012
 C         2.689921         2.101293        -2.660977
 C         3.337188         0.915873        -1.834027
 C         2.493310         0.192589        -0.978866
 O         2.152742         1.095708         0.074581
 H        -0.283731         0.349320         0.979070
 H        -0.770487        -0.601483        -0.354975
 H         0.856069        -1.114866         0.526898
 H         0.022408         0.682674        -2.458657
 H        -0.522389         1.949621        -1.355104
 H         0.803783         2.677699        -3.594854
 H         3.262607         2.366962        -3.464662
 H         3.696221         0.181581        -2.597315
 H         4.236432         1.296589        -1.308066
 H         2.773634        -0.822262        -0.888452
