19
Iteration:  1859charge 0 multiplicity 1
 C         0.171607        -0.597420        -0.021506
 C         1.036854         0.455533        -0.713948
 C         0.453217         1.302813        -1.867988
 C         1.326723         2.006929        -2.893281
 O         2.135850         3.159764        -2.410235
 C         2.797604         1.891836        -2.672087
 C         3.474096         1.262955        -1.490481
 C         2.528937         0.511602        -0.503545
 O         1.714947         1.339104         0.269924
 H        -0.690540        -1.118463        -0.580478
 H         0.844978        -1.408775         0.421739
 H        -0.208370         0.007776         0.888418
 H        -0.344827         0.623782        -2.480054
 H        -0.100392         2.128751        -1.327210
 H         0.949583         2.107146        -3.861839
 H         3.374734         1.793474        -3.520300
 H         4.100311         0.461109        -1.933553
 H         4.128160         1.921768        -0.881727
 H         2.899564        -0.356459         0.078133
