19
Iteration:  4062
 C         0.299611        -0.655895        -0.219928
 C         1.070686         0.582194        -0.726363
 C         0.362439         1.500976        -1.718955
 C         1.278323         2.044369        -2.836289
 O         2.216623         3.081795        -2.444429
 C         2.728108         1.738821        -2.736952
 C         3.411074         1.263350        -1.456712
 C         2.547904         0.483896        -0.494764
 O         1.690106         1.296722         0.362233
 H         0.017213        -1.295839        -1.159645
 H         1.039290        -1.359568         0.295457
 H        -0.533232        -0.465788         0.457763
 H        -0.503745         0.992420        -2.048499
 H        -0.017596         2.485461        -1.112647
 H         0.801106         2.064773        -3.855640
 H         3.311240         1.510994        -3.602903
 H         4.402852         0.784846        -1.763820
 H         3.759211         2.238169        -1.067214
 H         2.872137        -0.356176         0.061037
