19
Iteration:   493charge 0 multiplicity 1
 C         0.035505        -0.342811         0.025574
 C         1.128501         0.538794        -0.654070
 C         0.380255         1.455096        -1.684025
 C         1.200255         2.282788        -2.606736
 O         2.179330         3.188695        -2.111865
 C         2.650048         2.043252        -2.824227
 C         3.334205         1.027149        -1.880709
 C         2.494176         0.226924        -0.858370
 O         2.190954         0.955879         0.298732
 H        -0.862665         0.202829         0.259687
 H        -0.208242        -1.142419        -0.605440
 H         0.448199        -0.819858         0.919057
 H        -0.423113         0.795426        -2.221793
 H        -0.402586         2.107993        -1.214639
 H         0.678294         2.802514        -3.401342
 H         3.241259         2.253664        -3.656903
 H         3.921136         0.194361        -2.380561
 H         4.201009         1.463896        -1.397898
 H         2.859522        -0.804465        -0.880573
