19
Iteration:   141charge 0 multiplicity 1
 C         0.009328        -0.412223        -0.136161
 C         1.105477         0.564179        -0.662682
 C         0.421466         1.587160        -1.491924
 C         1.244619         2.041628        -2.683274
 O         2.000662         3.230106        -2.211767
 C         2.715960         2.017645        -2.746486
 C         3.505608         0.990938        -1.828641
 C         2.548717         0.247982        -0.828644
 O         2.094252         1.035159         0.310890
 H         0.301330        -1.315699         0.212106
 H        -0.586068         0.075028         0.644710
 H        -0.793795        -0.467462        -0.954927
 H        -0.602622         1.239985        -1.829435
 H         0.306378         2.481435        -0.935543
 H         0.720148         2.288736        -3.548174
 H         3.248999         2.175331        -3.661518
 H         4.091084         0.225514        -2.464908
 H         4.295770         1.512893        -1.285753
 H         2.931415        -0.767275        -0.612375
