19
Iteration:  3400
 C         0.113971        -0.683647        -0.341083
 C         1.050792         0.588350        -0.613057
 C         0.464047         1.649724        -1.480916
 C         1.325055         1.766936        -2.741217
 O         2.152725         3.127210        -2.889163
 C         2.800800         1.902212        -2.679770
 C         3.513043         1.455035        -1.379559
 C         2.518973         0.544339        -0.555341
 O         1.695344         1.010570         0.520926
 H        -0.023849        -1.296273        -1.192420
 H         0.445045        -1.173081         0.484290
 H        -0.926266        -0.345484        -0.145639
 H        -0.690880         1.539617        -1.830857
 H         0.576294         2.622802        -1.094036
 H         0.908596         1.665971        -3.729445
 H         3.371383         1.540327        -3.552425
 H         4.382162         0.909968        -1.721979
 H         3.955191         2.318448        -0.892283
 H         3.026948        -0.522271        -0.335622
