19
Iteration:  3211
 C         0.224082        -0.631143        -0.362467
 C         1.075286         0.532959        -0.662440
 C         0.619242         1.693831        -1.516026
 C         1.299380         1.865835        -2.885832
 O         2.191160         3.115575        -2.867588
 C         2.695877         1.760747        -2.739497
 C         3.278324         1.508740        -1.306158
 C         2.495742         0.451146        -0.491521
 O         1.731791         0.970532         0.570694
 H         0.293762        -1.411903        -1.101724
 H         0.514995        -0.892637         0.695200
 H        -0.772726        -0.375462        -0.290079
 H        -0.514464         1.802060        -1.711311
 H         0.847987         2.667171        -1.016579
 H         0.716140         1.808021        -3.791037
 H         3.376498         1.612954        -3.634818
 H         4.345636         1.451009        -1.252692
 H         3.129636         2.444966        -0.667317
 H         3.075208        -0.539365        -0.311057
