19
Iteration:  3988
 C         0.143263        -0.440313         0.000150
 C         1.072001         0.463035        -0.764426
 C         0.437857         1.216452        -1.966083
 C         1.392757         1.982366        -2.929989
 O         1.973190         3.092137        -2.130750
 C         2.818605         2.069667        -2.594107
 C         3.451534         1.037678        -1.569499
 C         2.572191         0.473657        -0.535946
 O         1.793877         1.406623         0.175190
 H         0.305821        -1.445106        -0.304869
 H         0.555894        -0.473189         1.088444
 H        -0.866801        -0.034118         0.167243
 H        -0.342409         0.716857        -2.581475
 H        -0.129163         2.025784        -1.522666
 H         0.976990         2.094844        -3.912731
 H         3.559362         2.354510        -3.361467
 H         3.822628         0.298178        -2.282732
 H         4.351032         1.449105        -1.115937
 H         2.867205        -0.447234         0.044947
