19
Iteration:   883
 C         0.116719        -0.365199         0.096049
 C         1.089076         0.449763        -0.758526
 C         0.382229         1.345524        -1.738306
 C         1.249557         2.301335        -2.596806
 O         2.132366         3.161637        -1.926424
 C         2.707866         2.076819        -2.599848
 C         3.300514         0.861699        -2.035445
 C         2.571907         0.297095        -0.845822
 O         2.080787         1.207184         0.138783
 H        -0.282304         0.334426         0.801259
 H        -0.781248        -0.591904        -0.458543
 H         0.605442        -1.355446         0.522774
 H        -0.059628         0.680109        -2.353411
 H        -0.346038         1.956651        -1.263132
 H         0.670996         2.708397        -3.493041
 H         3.207785         2.308485        -3.518055
 H         3.100367         0.230104        -2.932078
 H         4.431344         0.935090        -1.930844
 H         3.077597        -0.563842        -0.405951
