19
Iteration:  3425
 C         0.265390        -0.683274        -0.464331
 C         1.104552         0.652694        -0.591341
 C         0.421194         1.625294        -1.575959
 C         1.302823         2.024558        -2.782730
 O         2.094702         3.088832        -2.851559
 C         2.793948         1.783501        -2.715531
 C         3.395742         1.299259        -1.348098
 C         2.475073         0.501589        -0.466232
 O         1.749032         1.133215         0.628620
 H         0.051794        -1.049709        -1.437811
 H         0.842240        -1.378273         0.167177
 H        -0.711278        -0.492447        -0.075371
 H        -0.466901         1.219955        -1.981718
 H         0.217917         2.654119        -1.031785
 H         0.929639         1.524942        -3.776570
 H         3.409782         1.538844        -3.596138
 H         4.158362         0.517482        -1.716966
 H         4.030708         2.068662        -0.888000
 H         2.964328        -0.450853        -0.153116
