19
Iteration:  2831
 C         0.213359        -0.743815        -0.291318
 C         1.129303         0.506820        -0.639878
 C         0.383493         1.399763        -1.686810
 C         1.262218         2.028745        -2.745912
 O         2.213223         3.116745        -2.439673
 C         2.744742         1.757789        -2.770587
 C         3.503124         1.225976        -1.539169
 C         2.506789         0.569433        -0.483090
 O         1.669231         1.467540         0.369622
 H         0.047970        -1.233180        -1.192001
 H         0.808352        -1.595205         0.261138
 H        -0.655005        -0.458068         0.283348
 H        -0.416586         0.942043        -2.115763
 H        -0.069590         2.258803        -1.150400
 H         0.741504         2.242727        -3.725086
 H         3.210266         1.689911        -3.762367
 H         4.162247         0.361478        -1.867682
 H         4.121609         1.938073        -1.107189
 H         3.048213        -0.275395        -0.008473
