19
Iteration:  3642charge 0 multiplicity 1
 C         0.175852        -0.465439        -0.047511
 C         1.090392         0.476278        -0.778339
 C         0.405573         1.174646        -1.942602
 C         1.307379         2.057960        -2.780554
 O         2.122559         3.150695        -2.160375
 C         2.787443         1.953408        -2.629549
 C         3.498374         1.024817        -1.616112
 C         2.553205         0.478443        -0.488119
 O         1.725206         1.478636         0.180567
 H         0.066199        -1.375502        -0.642801
 H         0.543459        -0.801808         1.005142
 H        -0.870222        -0.039415         0.092202
 H         0.074428         0.377470        -2.662295
 H        -0.478295         1.757585        -1.529825
 H         1.002313         2.370943        -3.773518
 H         3.251689         1.934790        -3.631084
 H         3.919163         0.145580        -2.115512
 H         4.316457         1.599367        -1.203891
 H         2.828437        -0.281411         0.146348
