19
Iteration:  2578charge 0 multiplicity 1
 C         0.137383        -0.396819         0.029893
 C         1.074389         0.457116        -0.706152
 C         0.479014         1.203093        -1.961015
 C         1.429592         1.949628        -2.881618
 O         1.920958         3.193064        -2.176835
 C         2.802913         2.072261        -2.610660
 C         3.503169         1.023476        -1.643167
 C         2.531926         0.421349        -0.554012
 O         1.815657         1.369329         0.223658
 H         0.272417        -1.471798        -0.177290
 H         0.242323        -0.174534         1.046480
 H        -0.860838        -0.043678        -0.237647
 H        -0.267045         0.528008        -2.484937
 H        -0.172407         1.999846        -1.579674
 H         0.947935         2.198288        -3.894855
 H         3.403566         2.185126        -3.482577
 H         3.864536         0.203616        -2.332152
 H         4.356533         1.395952        -1.126656
 H         2.960714        -0.428068         0.054975
