19
Iteration:  1839charge 0 multiplicity 1
 C         0.264127        -0.541493        -0.008940
 C         1.016311         0.554737        -0.731927
 C         0.264357         1.304479        -1.842713
 C         1.353655         1.920801        -2.765595
 O         2.136054         3.023280        -2.239971
 C         2.870725         1.848837        -2.710857
 C         3.536965         1.196604        -1.525782
 C         2.539709         0.554909        -0.636641
 O         1.647119         1.430472         0.186474
 H        -0.339891        -0.944034        -0.788642
 H         0.957764        -1.444616         0.225772
 H        -0.269927        -0.113678         0.813396
 H        -0.245848         0.646261        -2.641961
 H        -0.375138         2.049810        -1.431531
 H         0.858500         2.218526        -3.743102
 H         3.468172         2.011632        -3.587168
 H         4.414555         0.592517        -1.702663
 H         3.934991         2.040379        -0.938472
 H         2.946530        -0.235654        -0.070105
