19
Iteration:  4130charge 0 multiplicity 1
 C         0.168424        -0.502180        -0.358175
 C         1.084029         0.568348        -0.633148
 C         0.494303         1.458608        -1.647926
 C         1.323168         1.936252        -2.843868
 O         2.060619         3.150232        -2.700302
 C         2.727512         1.809356        -2.709989
 C         3.428336         1.359257        -1.421230
 C         2.557188         0.424706        -0.464929
 O         1.791458         1.126364         0.533580
 H         0.114007        -1.230016        -1.165063
 H         0.523542        -1.070306         0.589936
 H        -0.822709         0.013729        -0.070314
 H        -0.251800         0.896456        -2.148590
 H        -0.072002         2.321914        -1.007495
 H         0.937845         1.783913        -3.837452
 H         3.395782         1.854354        -3.565456
 H         4.413541         0.822629        -1.607111
 H         3.682951         2.184934        -0.714204
 H         3.084169        -0.511998        -0.247728
