19
Iteration:  3502
 C         0.202906        -0.617834        -0.108916
 C         1.056949         0.553421        -0.607560
 C         0.403425         1.413543        -1.827405
 C         1.330723         2.010955        -2.929134
 O         2.130407         3.236905        -2.583754
 C         2.804852         1.959375        -2.655130
 C         3.350295         1.196344        -1.452376
 C         2.507669         0.345353        -0.512171
 O         1.794263         1.214476         0.459309
 H         0.082796        -1.244121        -0.927024
 H         0.565365        -1.201970         0.772580
 H        -0.710005        -0.157138         0.075440
 H        -0.276523         0.797165        -2.352897
 H         0.026501         2.444097        -1.357054
 H         0.866631         2.038385        -3.968148
 H         3.590716         2.013190        -3.454685
 H         4.050888         0.449267        -1.947131
 H         3.994038         1.986015        -1.057071
 H         3.165726        -0.531640        -0.068573
