19
Iteration:    27charge 0 multiplicity 1
 C         0.238255        -0.522996        -0.265148
 C         1.110139         0.777419        -0.582837
 C         0.308244         1.595268        -1.653544
 C         1.243972         2.205275        -2.734022
 O         2.103623         3.016870        -1.996817
 C         2.622335         1.896142        -2.740868
 C         3.344947         0.865821        -1.852700
 C         2.449072         0.366086        -0.777756
 O         2.210419         1.214599         0.334384
 H         0.791739        -1.149823         0.619883
 H        -0.804721        -0.248957         0.070777
 H         0.003089        -1.116100        -1.127464
 H        -0.542983         0.939508        -1.881485
 H        -0.264310         2.518162        -1.198520
 H         0.695759         2.628984        -3.617299
 H         3.046777         2.178131        -3.703320
 H         3.406900        -0.009791        -2.516833
 H         4.393355         1.200709        -1.557472
 H         2.499647        -0.692138        -0.579458
