19
Iteration:   549charge 0 multiplicity 1
 C         0.324653        -0.567282         0.024341
 C         1.044717         0.555999        -0.751264
 C         0.277922         1.580282        -1.706457
 C         1.254130         2.317143        -2.630004
 O         2.297928         3.100510        -1.882784
 C         2.670059         1.966133        -2.726943
 C         3.203887         0.795094        -2.014511
 C         2.495894         0.330057        -0.789882
 O         1.979506         1.286964         0.158203
 H        -0.783840        -0.528231         0.176895
 H         0.602955        -1.466215        -0.475189
 H         0.700823        -0.551013         1.004716
 H        -0.189484         0.884756        -2.506266
 H        -0.184640         2.375306        -1.065550
 H         0.787465         2.893184        -3.438173
 H         3.147873         2.307602        -3.602760
 H         3.114700        -0.114897        -2.687215
 H         4.232633         1.023048        -1.724001
 H         2.922439        -0.601354        -0.331982
