19
Iteration:  2570charge 0 multiplicity 1
 C         0.106951        -0.380074        -0.019440
 C         1.114948         0.524543        -0.768763
 C         0.423648         1.246909        -1.908647
 C         1.335287         1.898742        -2.879732
 O         1.962429         3.169806        -2.163656
 C         2.816874         2.030778        -2.588335
 C         3.490282         1.055772        -1.626901
 C         2.590211         0.424797        -0.550322
 O         1.825521         1.342920         0.205524
 H         0.313827        -1.371557        -0.121525
 H         0.187464        -0.289241         1.132315
 H        -0.933062        -0.181231        -0.196673
 H        -0.225430         0.480902        -2.501199
 H        -0.222652         1.996205        -1.536004
 H         1.141012         1.899202        -3.938346
 H         3.475192         2.346016        -3.435392
 H         3.874688         0.233642        -2.216133
 H         4.251020         1.602977        -1.088262
 H         3.026269        -0.386152        -0.050824
