19
Iteration:  1511charge 0 multiplicity 1
 C         0.252792        -0.433542         0.089036
 C         1.054291         0.475446        -0.820523
 C         0.383486         1.302627        -1.912428
 C         1.303763         2.042624        -2.742322
 O         2.134978         3.116324        -2.000849
 C         2.730034         1.976592        -2.598631
 C         3.434087         0.999548        -1.707617
 C         2.511263         0.365116        -0.675362
 O         1.787494         1.414408         0.032191
 H        -0.380991        -1.210457        -0.452033
 H         1.043003        -0.926954         0.892197
 H        -0.262766         0.161271         0.797365
 H        -0.281651         0.736641        -2.547701
 H        -0.324430         2.024193        -1.278154
 H         0.907613         2.388843        -3.730277
 H         3.388587         2.295560        -3.437897
 H         3.969756         0.232153        -2.354444
 H         4.278922         1.622691        -1.316449
 H         2.899319        -0.408451        -0.051248
