19
Iteration:  1254charge 0 multiplicity 1
 C         0.185333        -0.491764         0.122595
 C         1.056963         0.533602        -0.668881
 C         0.370149         1.389368        -1.753979
 C         1.272736         2.151516        -2.611638
 O         2.223800         3.174900        -2.048798
 C         2.774635         2.041302        -2.710592
 C         3.359993         0.968984        -1.897851
 C         2.491353         0.302085        -0.837265
 O         1.885290         1.249569         0.126560
 H        -0.596652        -0.876154        -0.447467
 H         0.721687        -1.282232         0.530897
 H        -0.205931         0.198285         0.946400
 H        -0.186007         0.773641        -2.367989
 H        -0.434958         2.053037        -1.379295
 H         0.690943         2.700374        -3.450092
 H         3.315040         2.225456        -3.693530
 H         3.543565         0.161985        -2.692083
 H         4.348837         1.193058        -1.436658
 H         2.967912        -0.531409        -0.347633
