19
Iteration:  2118charge 0 multiplicity 1
 C         0.099119        -0.529959        -0.203210
 C         1.052450         0.601250        -0.628422
 C         0.446478         1.246037        -1.852320
 C         1.342216         1.883848        -2.829532
 O         2.037245         3.109664        -2.207623
 C         2.788343         1.913858        -2.645639
 C         3.518939         1.078276        -1.626099
 C         2.600703         0.539322        -0.485772
 O         1.782362         1.494784         0.269691
 H         0.044935        -1.309137        -1.034833
 H         0.627981        -1.089721         0.495630
 H        -0.979539        -0.308277         0.079612
 H        -0.164194         0.444448        -2.470278
 H        -0.333287         2.009229        -1.572237
 H         0.898291         2.264165        -3.831914
 H         3.367297         2.178422        -3.616818
 H         3.786084         0.104430        -2.077009
 H         4.419186         1.578680        -1.247178
 H         3.075995        -0.177165         0.154555
