19
Iteration:  2123
 C         0.117228        -0.531740        -0.236526
 C         1.073967         0.620400        -0.673782
 C         0.425823         1.233113        -1.836613
 C         1.350414         1.900311        -2.798961
 O         2.048213         3.092988        -2.195628
 C         2.763256         1.902265        -2.696482
 C         3.513690         1.046200        -1.575373
 C         2.613989         0.597022        -0.522794
 O         1.738157         1.483994         0.265748
 H         0.076189        -1.281295        -0.983798
 H         0.734732        -1.034420         0.645282
 H        -0.881944        -0.279415        -0.012671
 H        -0.227072         0.555717        -2.249940
 H        -0.186362         2.063765        -1.427749
 H         0.878661         2.194433        -3.666575
 H         3.374068         2.022196        -3.555180
 H         3.885270         0.104140        -2.026309
 H         4.433218         1.594705        -1.284953
 H         3.063002        -0.225115         0.142221
