19
Iteration:  2483charge 0 multiplicity 1
 C         0.328501        -0.695031        -0.189045
 C         0.992616         0.565759        -0.633692
 C         0.415225         1.448294        -1.738135
 C         1.396467         2.014034        -2.806611
 O         2.103769         3.157831        -2.474474
 C         2.828612         1.885445        -2.680011
 C         3.422102         1.016003        -1.575232
 C         2.513638         0.537986        -0.455941
 O         1.622574         1.416672         0.321804
 H        -0.221801        -1.048797        -1.035877
 H         1.059161        -1.548439         0.274955
 H        -0.351663        -0.347857         0.620136
 H        -0.292878         0.847868        -2.340194
 H        -0.170182         2.218186        -1.276639
 H         0.907196         1.920497        -3.737346
 H         3.435358         1.964420        -3.602190
 H         3.902283         0.136572        -2.006219
 H         4.332528         1.550590        -1.160249
 H         3.040341         0.002408         0.259953
