19
Iteration:  2705charge 0 multiplicity 1
 C         0.182701        -0.546515        -0.005837
 C         1.023222         0.515277        -0.709101
 C         0.398374         1.296340        -1.892533
 C         1.315517         2.042480        -2.978691
 O         2.078972         3.239014        -2.486151
 C         2.838057         1.966196        -2.633855
 C         3.431881         1.164057        -1.483054
 C         2.501016         0.411722        -0.544567
 O         1.848407         1.275215         0.449528
 H        -0.211647        -1.200335        -0.891810
 H         0.781069        -1.106914         0.640854
 H        -0.758818        -0.136223         0.465386
 H        -0.083149         0.354273        -2.394386
 H        -0.327662         1.908359        -1.298304
 H         1.044327         2.055987        -3.992166
 H         3.491478         2.040891        -3.516317
 H         4.113416         0.485715        -1.974546
 H         4.079600         1.852057        -0.796600
 H         2.779990        -0.519953        -0.074309
