19
Iteration:  3712charge 0 multiplicity 1
 C         0.226065        -0.588470        -0.165992
 C         1.047117         0.524366        -0.691006
 C         0.473415         1.452569        -1.716389
 C         1.290640         1.981470        -2.784654
 O         2.163763         3.231489        -2.672531
 C         2.820008         1.955674        -2.674399
 C         3.444501         1.206879        -1.453912
 C         2.519725         0.482356        -0.517486
 O         1.671197         1.180404         0.462009
 H        -0.183063        -1.298488        -0.933510
 H         0.671825        -1.113240         0.599731
 H        -0.579322        -0.092395         0.298146
 H        -0.191655         0.672756        -2.314070
 H        -0.177689         2.129164        -1.249074
 H         0.837198         1.746574        -3.807545
 H         3.352396         1.898599        -3.636875
 H         3.885707         0.355477        -2.018347
 H         4.233326         1.636716        -0.829030
 H         2.969400        -0.546462        -0.086442
