19
Iteration:   186
 C         0.224671        -0.549081        -0.066433
 C         1.046190         0.557264        -0.653598
 C         0.362994         1.532341        -1.625867
 C         1.223859         2.355737        -2.597648
 O         2.286780         3.262929        -2.202932
 C         2.635613         1.916700        -2.813199
 C         3.343549         0.880328        -1.877613
 C         2.470306         0.317918        -0.762549
 O         1.967644         1.101780         0.335027
 H         0.887959        -0.950216         0.649568
 H        -0.693045        -0.294944         0.416340
 H        -0.007701        -1.308142        -0.814315
 H        -0.373117         1.000072        -2.234012
 H        -0.155812         2.262566        -1.068747
 H         0.767215         2.643983        -3.492010
 H         2.995083         2.014686        -3.825125
 H         3.856796         0.094237        -2.489642
 H         4.196835         1.385773        -1.419859
 H         2.813928        -0.667007        -0.453837
