19
Iteration:  4832
 C         0.212488        -0.506174        -0.165034
 C         1.082128         0.634080        -0.704426
 C         0.429630         1.240502        -1.855080
 C         1.315761         2.055551        -2.753196
 O         2.165879         3.126629        -2.276818
 C         2.772099         1.874735        -2.697539
 C         3.428181         1.146161        -1.548622
 C         2.519544         0.440686        -0.596989
 O         1.702128         1.362449         0.325358
 H        -0.176833        -1.049242        -0.996681
 H         0.957783        -1.025867         0.467157
 H        -0.575909        -0.212678         0.622652
 H         0.019770         0.316105        -2.415247
 H        -0.436835         1.806481        -1.561269
 H         0.777392         2.223253        -3.743427
 H         3.292792         1.843790        -3.724807
 H         4.081290         0.395253        -1.907265
 H         4.108357         1.801750        -0.992026
 H         2.980270        -0.394558        -0.060312
