19
Iteration:  4086charge 0 multiplicity 1
 C         0.264602        -0.707324        -0.237430
 C         1.030992         0.550018        -0.720678
 C         0.422066         1.581820        -1.597857
 C         1.360056         1.894622        -2.791534
 O         2.089890         3.121882        -2.619599
 C         2.865156         1.904020        -2.692790
 C         3.480066         1.216227        -1.474554
 C         2.485870         0.599837        -0.569685
 O         1.626935         1.234617         0.442643
 H        -0.034498        -1.311038        -1.120278
 H         0.996795        -1.439981         0.314833
 H        -0.621097        -0.448836         0.458364
 H        -0.539913         1.234208        -1.842154
 H         0.315315         2.605556        -0.968779
 H         0.958513         1.697146        -3.784917
 H         3.414519         1.679337        -3.599150
 H         4.167938         0.365476        -1.773361
 H         4.189648         1.958558        -1.084614
 H         2.805389        -0.362921        -0.148239
