19
Iteration:  2862
 C         0.199926        -0.535757        -0.114199
 C         1.078129         0.515972        -0.729356
 C         0.355853         1.313270        -1.838399
 C         1.338584         1.962902        -2.808555
 O         2.066981         3.140636        -2.333597
 C         2.751221         1.893256        -2.638898
 C         3.505615         1.213246        -1.471847
 C         2.554627         0.457361        -0.623118
 O         1.805492         1.370023         0.281976
 H        -0.050854        -1.271711        -0.886994
 H         0.687451        -0.972335         0.835979
 H        -0.756251        -0.165371         0.208527
 H        -0.342334         0.629776        -2.416324
 H        -0.323883         2.125493        -1.332188
 H         0.961779         2.099207        -3.752984
 H         3.316269         1.896817        -3.508703
 H         4.060698         0.391080        -1.971567
 H         4.160921         1.908429        -0.897636
 H         2.955942        -0.501630        -0.149487
