19
Iteration:  2406
 C         0.086403        -0.552065         0.116141
 C         1.027872         0.428215        -0.725580
 C         0.409967         1.257321        -1.895861
 C         1.420009         2.023620        -2.836823
 O         2.099254         3.268875        -2.472994
 C         2.903529         2.024914        -2.693966
 C         3.380187         1.176565        -1.504296
 C         2.543919         0.421129        -0.542541
 O         1.782684         1.283809         0.323178
 H        -0.431291        -1.062194        -0.668175
 H         0.579329        -1.409716         0.813737
 H        -0.588158         0.154054         0.686695
 H        -0.013155         0.555361        -2.617867
 H        -0.451727         1.820563        -1.645473
 H         1.065294         2.046413        -3.824472
 H         3.414493         1.925598        -3.668161
 H         4.059539         0.468357        -1.963194
 H         3.981863         1.897803        -0.861527
 H         3.047104        -0.440336        -0.249739
