19
Iteration:  3348charge 0 multiplicity 1
 C         0.176978        -0.557492        -0.350232
 C         1.075952         0.563121        -0.575967
 C         0.425902         1.648679        -1.571041
 C         1.271992         1.926362        -2.847733
 O         2.229820         3.072806        -2.946875
 C         2.795597         1.800649        -2.664609
 C         3.298331         1.555642        -1.301398
 C         2.523038         0.455330        -0.591097
 O         1.821025         0.906418         0.651797
 H        -0.041261        -0.980469        -1.320112
 H         0.555975        -1.323914         0.306709
 H        -0.793879        -0.206572         0.092020
 H        -0.428353         1.278650        -2.008684
 H         0.046380         2.548716        -1.020084
 H         0.993513         1.751365        -3.896596
 H         3.331691         1.289083        -3.456166
 H         4.431550         1.412318        -1.353392
 H         3.253820         2.491957        -0.753433
 H         3.064767        -0.502200        -0.437655
