19
Iteration:  2891charge 0 multiplicity 1
 C         0.144666        -0.416412         0.123756
 C         1.005751         0.538505        -0.650406
 C         0.463865         1.239971        -1.969603
 C         1.480604         1.955113        -2.920457
 O         1.940953         3.166322        -2.233049
 C         2.854485         2.110596        -2.693075
 C         3.401441         1.127300        -1.589698
 C         2.567866         0.395019        -0.652740
 O         1.794580         1.238626         0.300145
 H         0.062554        -1.416014        -0.494224
 H         0.617289        -0.574446         1.029225
 H        -0.931933        -0.165395         0.282410
 H         0.219453         0.315304        -2.619625
 H        -0.398338         1.819956        -1.864450
 H         0.920155         2.322672        -3.851498
 H         3.639199         2.473130        -3.425033
 H         3.831747         0.292908        -2.097447
 H         4.280304         1.667076        -1.009951
 H         2.997624        -0.464673        -0.181770
