19
Iteration:  3366charge 0 multiplicity 1
 C         0.130086        -0.575174        -0.334528
 C         1.079129         0.588155        -0.654514
 C         0.557445         1.646108        -1.599991
 C         1.308888         1.862563        -2.856846
 O         2.181260         3.136413        -2.833166
 C         2.737047         1.772152        -2.736963
 C         3.239116         1.505394        -1.277936
 C         2.612125         0.361926        -0.511341
 O         1.826124         1.004796         0.545602
 H        -0.011655        -1.282373        -1.151999
 H         0.461807        -1.197197         0.479321
 H        -0.820592        -0.126488        -0.051632
 H        -0.639684         1.398323        -1.621352
 H         0.612478         2.609228        -1.197835
 H         0.766226         1.729439        -3.775051
 H         3.408757         1.613495        -3.590875
 H         4.287283         1.520831        -1.132813
 H         2.822961         2.393501        -0.782630
 H         3.071992        -0.716481        -0.307186
