19
Iteration:   948
 C         0.330255        -0.563298        -0.085286
 C         1.012718         0.547616        -0.671742
 C         0.342279         1.593386        -1.548100
 C         1.206474         2.297042        -2.580933
 O         2.301508         3.195349        -2.101608
 C         2.676287         1.967719        -2.800730
 C         3.295560         0.880580        -1.968500
 C         2.450805         0.250732        -0.774445
 O         1.945639         1.173366         0.213731
 H        -0.748877        -0.464934         0.033140
 H         0.552652        -1.423317        -0.696743
 H         0.768154        -0.842135         0.977801
 H        -0.735966         1.337320        -1.961034
 H         0.061178         2.356767        -0.737391
 H         0.660437         2.866820        -3.391557
 H         3.191687         2.137429        -3.670769
 H         3.444560         0.039910        -2.666927
 H         4.297023         1.189983        -1.588781
 H         2.827068        -0.634388        -0.321175
