19
Iteration:  1501
 C         0.344063        -0.429029         0.161475
 C         1.044539         0.475370        -0.830988
 C         0.320744         1.311533        -1.920468
 C         1.343523         2.175439        -2.723072
 O         2.067525         3.090523        -2.028300
 C         2.807211         1.955951        -2.589226
 C         3.431733         0.951122        -1.698761
 C         2.504536         0.412590        -0.692393
 O         1.768038         1.403658         0.019180
 H        -0.039563        -1.357688        -0.385109
 H         1.089372        -0.961092         0.997622
 H        -0.582031         0.024974         0.455620
 H        -0.258044         0.796917        -2.664393
 H        -0.337441         2.040689        -1.298138
 H         1.000165         2.412861        -3.729730
 H         3.377777         2.140165        -3.448737
 H         3.752762         0.089775        -2.343654
 H         4.314031         1.316740        -1.128691
 H         2.790879        -0.491985        -0.177872
