19
Iteration:  1345charge 0 multiplicity 1
 C         0.073999        -0.515494        -0.115430
 C         1.108111         0.560917        -0.599089
 C         0.424567         1.412326        -1.637885
 C         1.270633         2.136488        -2.716370
 O         2.172155         3.243657        -2.323669
 C         2.681193         1.868882        -2.763537
 C         3.404400         1.048437        -1.746050
 C         2.607333         0.379442        -0.650347
 O         1.922625         1.197649         0.334960
 H        -0.570174        -0.276683         0.759300
 H        -0.759779        -0.549166        -0.855644
 H         0.476167        -1.518569        -0.160149
 H        -0.297078         0.857318        -2.151647
 H        -0.260487         2.124608        -1.097323
 H         0.711731         2.402288        -3.670885
 H         3.208745         1.897217        -3.650433
 H         3.999918         0.275420        -2.256072
 H         4.209220         1.721507        -1.447573
 H         2.969379        -0.536355        -0.287941
