19
Iteration:  4919charge 0 multiplicity 1
 C         0.238048        -0.340648         0.041806
 C         1.065000         0.588217        -0.764990
 C         0.528005         1.112024        -2.160137
 C         1.327393         2.108902        -2.862055
 O         1.952815         3.021575        -1.957348
 C         2.740707         2.010730        -2.560943
 C         3.391085         0.941113        -1.635563
 C         2.542592         0.390333        -0.540138
 O         1.845402         1.477885         0.121354
 H         0.059622        -1.297633        -0.458733
 H         0.586920        -0.614752         1.068695
 H        -0.816788         0.144933         0.239532
 H         0.400233         0.220378        -2.684904
 H        -0.545564         1.597031        -1.978511
 H         1.035501         2.573036        -3.946544
 H         3.499080         2.510593        -3.264737
 H         3.949841         0.111973        -2.224407
 H         4.235613         1.531810        -1.150249
 H         2.861559        -0.345705         0.175865
