19
Iteration:  3954
 C         0.175580        -0.413286         0.055837
 C         0.997943         0.574108        -0.735065
 C         0.420183         1.015800        -2.060167
 C         1.246958         2.051759        -2.715925
 O         2.123739         3.060380        -1.977018
 C         2.825858         1.980125        -2.628971
 C         3.533115         1.039352        -1.615763
 C         2.446571         0.481761        -0.637673
 O         1.809793         1.564105         0.060643
 H         0.007583        -1.324205        -0.610355
 H         0.833030        -0.628554         0.977449
 H        -0.893398        -0.223830         0.191971
 H         0.470314         0.176483        -2.777520
 H        -0.616612         1.416659        -2.014499
 H         0.906893         2.434999        -3.700198
 H         3.524733         2.200848        -3.429447
 H         3.934508         0.181032        -2.213335
 H         4.323524         1.526641        -1.060009
 H         2.851346        -0.347154        -0.031512
