19
Iteration:  4461
 C         0.152029        -0.772702        -0.370863
 C         1.039945         0.635631        -0.617245
 C         0.376738         1.551854        -1.650525
 C         1.304608         1.882657        -2.796065
 O         2.149898         3.045484        -2.477409
 C         2.789779         1.829301        -2.729479
 C         3.477438         1.236744        -1.497260
 C         2.538152         0.557964        -0.524167
 O         1.775944         1.350738         0.429007
 H         0.523325        -1.453808        -1.090163
 H         0.348509        -1.169539         0.584749
 H        -0.941386        -0.501900        -0.532883
 H        -0.534896         1.142124        -2.005779
 H         0.024854         2.599735        -1.117746
 H         0.866665         1.937227        -3.771368
 H         3.569986         1.882372        -3.538086
 H         4.280354         0.479776        -1.823138
 H         3.980147         2.175084        -1.014818
 H         2.959369        -0.340725        -0.075223
