19
Iteration:  1061
 C         0.140741        -0.594592        -0.007212
 C         0.989325         0.534837        -0.669309
 C         0.420962         1.645317        -1.523009
 C         1.335097         2.188704        -2.610657
 O         2.122926         3.300391        -2.353000
 C         2.742287         1.988283        -2.762650
 C         3.384425         1.002463        -1.791100
 C         2.477581         0.275571        -0.853104
 O         1.986910         1.029805         0.289943
 H         0.271026        -0.525725         1.082545
 H        -0.909220        -0.694705        -0.364605
 H         0.621431        -1.575103        -0.230360
 H        -0.679817         1.491900        -1.956449
 H         0.289433         2.388107        -0.722301
 H         0.728358         2.376278        -3.484012
 H         3.039544         1.922449        -3.849415
 H         3.857479         0.262235        -2.537348
 H         4.271094         1.477823        -1.228292
 H         2.910467        -0.744459        -0.486985
