19
Iteration:  4172
 C         0.174764        -0.667544        -0.137884
 C         0.976092         0.540679        -0.675454
 C         0.427676         1.487983        -1.664139
 C         1.399444         1.926316        -2.763720
 O         2.157029         3.153169        -2.634283
 C         2.881920         1.884387        -2.725316
 C         3.428183         1.370625        -1.399436
 C         2.451078         0.445141        -0.635698
 O         1.737846         1.193621         0.361096
 H         0.171596        -1.546584        -0.812821
 H         0.673733        -1.170732         0.771112
 H        -0.785666        -0.442509         0.206290
 H        -0.447978         1.168706        -2.114876
 H         0.171615         2.543947        -1.192622
 H         0.804098         1.843812        -3.697778
 H         3.373624         1.657033        -3.638620
 H         4.405835         0.795671        -1.582393
 H         3.553789         2.304759        -0.702670
 H         2.927279        -0.407192        -0.244038
