19
Iteration:  4057
 C         0.263760        -0.679045        -0.218380
 C         1.078031         0.586988        -0.713765
 C         0.344381         1.501226        -1.731886
 C         1.288072         2.060677        -2.830816
 O         2.220051         3.082767        -2.447855
 C         2.698655         1.745226        -2.727213
 C         3.420882         1.250136        -1.464034
 C         2.525229         0.514067        -0.477277
 O         1.744647         1.303455         0.357357
 H         0.070947        -1.238142        -1.074238
 H         0.920938        -1.339446         0.275090
 H        -0.599815        -0.485331         0.442593
 H        -0.491207         0.781720        -2.141427
 H        -0.077851         2.244999        -1.212990
 H         0.970638         2.180880        -3.873545
 H         3.299897         1.531061        -3.664068
 H         4.341345         0.715247        -1.562437
 H         3.655963         2.262944        -1.099152
 H         3.080456        -0.433881        -0.071025
