19
Iteration:  4050
 C         0.233395        -0.680480        -0.222660
 C         1.039443         0.558716        -0.650452
 C         0.343399         1.437768        -1.778614
 C         1.280795         2.060152        -2.797802
 O         2.220556         3.094094        -2.473879
 C         2.718392         1.744087        -2.714121
 C         3.418902         1.250162        -1.469575
 C         2.535026         0.550252        -0.505997
 O         1.823687         1.323953         0.380613
 H        -0.154444        -1.255057        -1.182882
 H         0.850901        -1.310763         0.463640
 H        -0.698042        -0.449268         0.260140
 H        -0.255092         0.755214        -2.400381
 H        -0.413419         2.193667        -1.193976
 H         0.970385         2.340603        -3.857595
 H         3.165504         1.781216        -3.689114
 H         4.303101         0.542597        -1.513086
 H         3.680886         2.153409        -0.871506
 H         3.050584        -0.338271        -0.240262
