19
Iteration:  4162charge 0 multiplicity 1
 C         0.132316        -0.659223        -0.158771
 C         0.977440         0.498202        -0.637291
 C         0.374106         1.510275        -1.671518
 C         1.304332         1.899333        -2.820490
 O         2.222159         3.082226        -2.591703
 C         2.827241         1.829700        -2.685649
 C         3.478339         1.477240        -1.372135
 C         2.495638         0.479541        -0.693306
 O         1.780965         1.166476         0.362031
 H         0.055084        -1.445778        -0.913211
 H         0.671663        -0.891465         0.825585
 H        -0.894897        -0.341176         0.029513
 H        -0.506271         1.133375        -2.022866
 H         0.070512         2.438283        -0.962612
 H         0.974442         1.882964        -3.864749
 H         3.494498         1.851690        -3.518341
 H         4.526028         1.011939        -1.450588
 H         3.663992         2.530174        -1.031859
 H         2.858986        -0.431894        -0.343019
