19
Iteration:   853
 C         0.204362        -0.288837         0.171208
 C         1.029380         0.564227        -0.742908
 C         0.396932         1.371315        -1.837383
 C         1.300115         2.213361        -2.709482
 O         2.023944         3.185571        -1.851775
 C         2.715841         2.105214        -2.563415
 C         3.331623         0.859557        -2.020039
 C         2.404301         0.166396        -0.937153
 O         2.170861         1.139170         0.145073
 H         0.034460         0.282236         1.028258
 H        -0.660359        -0.708896        -0.241325
 H         0.799032        -1.255794         0.455271
 H        -0.346039         0.613185        -2.427500
 H        -0.258577         2.180959        -1.464861
 H         0.763916         2.661957        -3.580891
 H         3.366807         2.617875        -3.454886
 H         3.661237         0.299024        -2.899984
 H         4.200042         1.173559        -1.390311
 H         2.775829        -0.810649        -0.427421
