19
Iteration:   810charge 0 multiplicity 1
 C         0.061628        -0.396158         0.068541
 C         1.081277         0.458391        -0.733428
 C         0.385534         1.389594        -1.681977
 C         1.237519         2.301714        -2.524716
 O         2.232593         3.155070        -1.960049
 C         2.617835         2.031968        -2.758879
 C         3.399489         0.942823        -2.012752
 C         2.561187         0.288471        -0.880834
 O         2.032456         1.153921         0.192751
 H        -0.568217         0.313603         0.556329
 H        -0.623088        -0.998047        -0.509920
 H         0.623326        -1.047547         0.782500
 H        -0.251687         0.782975        -2.529355
 H        -0.259771         2.007973        -0.989878
 H         0.715751         2.718542        -3.386864
 H         2.960649         2.153044        -3.877425
 H         3.897586         0.266394        -2.714942
 H         4.161677         1.528920        -1.501386
 H         3.018962        -0.727104        -0.642672
