19
Iteration:  4496charge 0 multiplicity 1
 C         0.291950        -0.672491        -0.268797
 C         1.056606         0.572319        -0.706305
 C         0.451164         1.633123        -1.599304
 C         1.331373         1.982741        -2.780493
 O         2.200462         3.195619        -2.788271
 C         2.798735         1.865729        -2.696571
 C         3.344440         1.242849        -1.424746
 C         2.528421         0.428364        -0.514580
 O         1.626465         1.115084         0.512476
 H         0.614488        -1.679642        -0.575214
 H         0.284955        -0.515521         0.875244
 H        -0.718943        -0.773772        -0.435099
 H        -0.363005         1.121696        -2.053326
 H         0.103372         2.411103        -0.709663
 H         0.740241         1.861865        -3.661965
 H         3.383812         1.852971        -3.576195
 H         4.279827         0.601573        -1.706087
 H         3.865939         2.186905        -1.041099
 H         2.978777        -0.522548        -0.212918
