19
Iteration:  1609
 C         0.273235        -0.612588        -0.037287
 C         1.008444         0.538768        -0.662738
 C         0.301348         1.427153        -1.716572
 C         1.314238         1.959615        -2.726240
 O         2.133680         3.110612        -2.287208
 C         2.852604         1.908966        -2.694222
 C         3.503279         1.139471        -1.617543
 C         2.493444         0.431281        -0.700822
 O         1.738178         1.388649         0.193632
 H        -0.706197        -0.268403         0.242796
 H         0.060060        -1.398620        -0.786199
 H         0.819007        -1.088070         0.644643
 H        -0.552781         1.024657        -2.204400
 H        -0.111103         2.349101        -1.141416
 H         0.834632         2.141657        -3.752660
 H         3.527914         2.136027        -3.650538
 H         4.125009         0.398346        -2.201556
 H         4.228717         1.747077        -1.024402
 H         2.899452        -0.392412        -0.153285
