19
Iteration:   103
 C         0.232905        -0.527509        -0.036019
 C         1.010210         0.536217        -0.632875
 C         0.291129         1.565244        -1.573077
 C         1.194957         2.302411        -2.646471
 O         2.352991         3.285790        -2.376283
 C         2.661753         1.924087        -2.852738
 C         3.428329         1.066840        -1.721865
 C         2.424681         0.211196        -0.867813
 O         2.001397         0.949402         0.383785
 H         0.902461        -1.358537         0.588929
 H        -0.357229         0.056826         0.731157
 H        -0.332113        -1.120357        -0.738747
 H        -0.532951         1.060425        -2.064284
 H        -0.232743         2.397464        -0.934953
 H         0.491390         2.831259        -3.399163
 H         3.011313         2.058766        -3.893773
 H         4.180479         0.487385        -2.190865
 H         3.803258         1.855179        -1.018615
 H         2.520837        -0.833225        -0.620680
