19
Iteration:   700charge 0 multiplicity 1
 C         0.049007        -0.462644        -0.137537
 C         1.112730         0.399785        -0.685503
 C         0.336554         1.555808        -1.439639
 C         1.186731         2.216096        -2.587643
 O         2.278850         3.254342        -2.308778
 C         2.650080         2.016646        -2.791002
 C         3.397193         1.067963        -1.876417
 C         2.599236         0.256364        -0.778451
 O         2.019680         1.030913         0.323623
 H        -0.694958         0.090102         0.398758
 H        -0.580225        -0.844778        -0.907968
 H         0.501712        -1.312400         0.592060
 H        -0.512708         1.156722        -1.887733
 H        -0.090199         2.267178        -0.707068
 H         0.450877         2.568846        -3.309781
 H         3.054217         1.989881        -3.903280
 H         3.830092         0.274617        -2.511728
 H         4.282759         1.519947        -1.446214
 H         3.056325        -0.730355        -0.387679
