19
Iteration:  4669charge 0 multiplicity 1
 C         0.129979        -0.648065        -0.353714
 C         1.024217         0.514579        -0.573414
 C         0.496786         1.611770        -1.558839
 C         1.390454         1.870162        -2.775062
 O         2.079687         3.162299        -2.808367
 C         2.904202         1.909780        -2.802544
 C         3.406049         1.358660        -1.382336
 C         2.484649         0.483368        -0.533194
 O         1.707034         1.095436         0.524663
 H        -0.632616        -0.863486        -1.048552
 H         0.731520        -1.536302        -0.164478
 H        -0.232536        -0.605764         0.769985
 H        -0.506792         1.429173        -1.830041
 H         0.219107         2.526542        -1.011305
 H         1.033752         1.465294        -3.648314
 H         3.693916         1.810161        -3.595974
 H         4.318863         0.780730        -1.573753
 H         3.776800         2.229178        -0.794517
 H         3.004710        -0.417567        -0.213171
