19
Iteration:   446charge 0 multiplicity 1
 C         0.088415        -0.567866        -0.047690
 C         1.050214         0.480033        -0.656397
 C         0.369974         1.603745        -1.497111
 C         1.230592         2.207789        -2.634944
 O         2.168192         3.234613        -2.241128
 C         2.710859         2.020060        -2.733508
 C         3.393531         0.990555        -1.851011
 C         2.455287         0.252918        -0.832533
 O         2.108026         1.125108         0.228148
 H        -0.102175        -0.272946         0.887055
 H        -0.834437        -0.670279        -0.580291
 H         0.556787        -1.592610        -0.037640
 H        -0.576441         1.322047        -1.942164
 H         0.058496         2.386180        -0.782177
 H         0.719576         2.458760        -3.595922
 H         3.180323         2.102814        -3.734547
 H         3.815593         0.280152        -2.605885
 H         4.312616         1.215262        -1.279493
 H         2.910877        -0.683513        -0.470261
