19
Iteration:  4220charge 0 multiplicity 1
 C         0.230048        -0.594557        -0.339882
 C         1.102067         0.551705        -0.627216
 C         0.393547         1.425649        -1.771881
 C         1.356849         1.936468        -2.835298
 O         2.087203         3.094931        -2.443703
 C         2.821378         1.882416        -2.703842
 C         3.452380         1.145657        -1.542177
 C         2.531629         0.616425        -0.419178
 O         1.696600         1.340835         0.482035
 H        -0.005496        -1.110723        -1.256258
 H         0.638591        -1.385286         0.237616
 H        -0.714941        -0.214079         0.288668
 H        -0.295987         0.751372        -2.392365
 H        -0.259019         2.183054        -1.277953
 H         0.993461         1.794069        -3.842551
 H         3.426414         1.932768        -3.666081
 H         3.739416         0.150804        -1.943129
 H         4.315248         1.783404        -1.347080
 H         3.000947        -0.266939         0.079808
