19
Iteration:   785
 C         0.134758        -0.557608        -0.102816
 C         1.058008         0.507860        -0.616398
 C         0.375148         1.492202        -1.523525
 C         1.230586         2.308653        -2.575907
 O         2.275865         3.193750        -2.095476
 C         2.676655         2.049087        -2.792992
 C         3.281949         0.859274        -2.020202
 C         2.566970         0.329421        -0.753541
 O         1.988925         1.184487         0.237316
 H        -0.778790        -0.120175         0.218525
 H         0.015510        -1.334546        -0.857491
 H         0.615254        -1.132292         0.762588
 H        -0.461453         0.938822        -2.225071
 H        -0.073205         2.202310        -0.827287
 H         0.614376         2.907073        -3.313909
 H         3.212647         2.138750        -3.837371
 H         3.276615         0.072186        -2.771977
 H         4.357129         1.131480        -1.805659
 H         3.144237        -0.571392        -0.366021
