19
Iteration:  2244
 C         0.048410        -0.388352        -0.107676
 C         1.069003         0.558732        -0.679337
 C         0.382902         1.284550        -1.866711
 C         1.339126         1.859759        -2.851280
 O         2.024150         3.053329        -2.239088
 C         2.827154         1.917856        -2.639457
 C         3.584495         1.245611        -1.498957
 C         2.573783         0.423705        -0.664114
 O         1.807023         1.371943         0.251582
 H        -0.185367        -0.883712        -0.984225
 H         0.374614        -1.320360         0.549992
 H        -0.795847         0.007251         0.400363
 H        -0.170284         0.527664        -2.370423
 H        -0.319512         2.162077        -1.491230
 H         0.856655         2.056945        -3.779494
 H         3.480404         2.038859        -3.482788
 H         4.359446         0.574553        -1.930638
 H         4.145833         1.858453        -0.746997
 H         3.091751        -0.499085        -0.062736
