19
Iteration:   626
 C         0.114575        -0.435116         0.017205
 C         1.051019         0.523947        -0.723752
 C         0.383403         1.501929        -1.634972
 C         1.245181         2.284298        -2.588005
 O         2.173140         3.148429        -2.050481
 C         2.683502         2.007235        -2.773162
 C         3.386564         0.957582        -1.891077
 C         2.574929         0.222355        -0.809449
 O         2.026171         1.112415         0.124019
 H        -0.366846         0.299175         0.784692
 H        -0.791775        -0.806865        -0.474000
 H         0.654451        -1.249336         0.591199
 H        -0.388050         0.841808        -2.289489
 H        -0.240711         2.249912        -0.999460
 H         0.659742         2.627310        -3.433530
 H         3.069733         2.298821        -3.692243
 H         3.927671         0.149026        -2.506711
 H         4.176378         1.513984        -1.362223
 H         2.889567        -0.702131        -0.345273
