19
Iteration:  4218
 C         0.220650        -0.594055        -0.335612
 C         1.101417         0.545460        -0.623857
 C         0.394630         1.426611        -1.794880
 C         1.339990         1.929771        -2.838229
 O         2.088294         3.107026        -2.462828
 C         2.824333         1.892918        -2.707056
 C         3.450291         1.144024        -1.513499
 C         2.542012         0.620595        -0.409128
 O         1.702638         1.322248         0.485766
 H        -0.011457        -1.096997        -1.263350
 H         0.714110        -1.375315         0.279579
 H        -0.678413        -0.235444         0.268465
 H        -0.293645         0.812990        -2.330149
 H        -0.284034         2.209941        -1.232680
 H         1.019622         1.852104        -3.882871
 H         3.385906         1.901113        -3.657001
 H         3.706407         0.116221        -1.951935
 H         4.382854         1.765275        -1.360790
 H         2.957770        -0.246998         0.050676
