19
Iteration:  2140
 C         0.331785        -0.557044        -0.183446
 C         1.102732         0.507626        -0.741102
 C         0.365320         1.376149        -1.773874
 C         1.284662         2.016747        -2.765645
 O         2.138261         2.986916        -2.242309
 C         2.824311         1.809398        -2.677425
 C         3.489822         1.116318        -1.624598
 C         2.518687         0.596625        -0.498179
 O         1.630824         1.467750         0.264291
 H         0.202562        -1.437316        -0.917104
 H         0.548211        -0.973258         0.749417
 H        -0.720755        -0.056935        -0.216946
 H        -0.389451         0.773340        -2.449162
 H        -0.282254         2.106383        -1.222116
 H         0.925129         2.250854        -3.856970
 H         3.316533         2.067543        -3.683058
 H         3.968497         0.189963        -1.973310
 H         4.215077         1.745114        -1.103853
 H         2.938118        -0.180131         0.108788
