19
Iteration:  3575charge 0 multiplicity 1
 C         0.211583        -0.445740         0.041693
 C         1.053208         0.518410        -0.754248
 C         0.479939         1.104119        -2.037860
 C         1.346528         2.133126        -2.773415
 O         2.004667         3.066603        -1.957615
 C         2.808886         1.893416        -2.666745
 C         3.442491         0.945370        -1.657822
 C         2.544598         0.517991        -0.496168
 O         1.730971         1.559717         0.029276
 H        -0.118428        -1.233030        -0.696206
 H         0.719769        -1.003752         0.877736
 H        -0.642164         0.220631         0.492893
 H         0.351056         0.354729        -2.910193
 H        -0.328934         1.634412        -1.745206
 H         1.010556         2.477864        -3.746457
 H         3.435092         2.351046        -3.453330
 H         3.908917         0.144952        -2.242023
 H         4.245277         1.413587        -1.076502
 H         3.029965        -0.226799         0.103234
