19
Iteration:  1104
 C         0.174399        -0.469380        -0.244244
 C         1.090177         0.570691        -0.603780
 C         0.372563         1.536636        -1.613123
 C         1.244163         2.230590        -2.572725
 O         2.162192         3.144123        -2.161232
 C         2.624162         1.882919        -2.837208
 C         3.332928         0.961156        -1.904250
 C         2.553659         0.321080        -0.689453
 O         2.047128         1.202860         0.378711
 H         0.615283        -1.079413         0.510224
 H        -0.807163        -0.044977        -0.098192
 H         0.083866        -1.165075        -1.117487
 H        -0.405478         0.824997        -2.172944
 H        -0.103578         2.358323        -0.988228
 H         0.660785         2.419989        -3.479189
 H         2.998913         2.055369        -3.802805
 H         3.681995         0.064642        -2.435427
 H         4.289629         1.338808        -1.465681
 H         2.978517        -0.578218        -0.228442
