19
Iteration:  2701charge 0 multiplicity 1
 C         0.163621        -0.548602        -0.011503
 C         1.027012         0.526886        -0.681650
 C         0.421177         1.300272        -1.901310
 C         1.357740         2.032141        -2.939517
 O         2.061780         3.246779        -2.472771
 C         2.818426         1.959480        -2.610896
 C         3.435752         1.173177        -1.513358
 C         2.499809         0.397827        -0.544736
 O         1.820865         1.304032         0.413103
 H        -0.153279        -1.106568        -0.806778
 H         0.926695        -1.162596         0.611385
 H        -0.708778        -0.293357         0.569027
 H        -0.056381         0.400101        -2.412779
 H        -0.291689         1.873558        -1.361747
 H         1.031937         2.033003        -4.064193
 H         3.496733         2.016424        -3.558982
 H         4.085358         0.358711        -1.966351
 H         4.103898         1.711395        -0.886453
 H         2.793711        -0.577680        -0.121832
