19
Iteration:  1402
 C         0.190852        -0.533349         0.030557
 C         1.000872         0.538708        -0.712595
 C         0.376272         1.447427        -1.733050
 C         1.299138         2.071273        -2.748490
 O         2.128006         3.128474        -2.248983
 C         2.837335         1.998935        -2.723038
 C         3.457264         1.071713        -1.705654
 C         2.439193         0.338916        -0.721840
 O         1.903649         1.283635         0.251966
 H         0.962384        -1.208403         0.541780
 H        -0.756802        -0.077781         0.609667
 H        -0.272319        -1.307427        -0.522158
 H        -0.371259         0.899613        -2.319960
 H        -0.178279         2.205753        -1.155210
 H         0.879938         2.348941        -3.692160
 H         3.265871         2.037442        -3.665500
 H         4.100154         0.360415        -2.192354
 H         3.974811         1.718998        -1.003285
 H         2.719449        -0.624414        -0.269655
