19
Iteration:  3525charge 0 multiplicity 1
 C         0.077261        -0.509426        -0.051414
 C         1.005723         0.578480        -0.705990
 C         0.472261         1.284406        -1.856467
 C         1.401474         1.982605        -2.857871
 O         1.992099         3.179659        -2.383616
 C         2.887691         1.998148        -2.660824
 C         3.470260         1.166261        -1.555623
 C         2.493874         0.421886        -0.595871
 O         1.819831         1.244958         0.404728
 H        -0.026493        -1.395874        -0.624491
 H         0.633756        -0.765878         0.885039
 H        -0.824533        -0.070512         0.221606
 H         0.082784         0.504304        -2.428048
 H        -0.280116         2.151844        -1.517706
 H         1.021439         2.123753        -3.916606
 H         3.385639         1.966364        -3.638851
 H         4.187701         0.441769        -2.038628
 H         4.105325         1.866195        -0.953738
 H         3.052254        -0.533167        -0.303263
