19
Iteration:  1742charge 0 multiplicity 1
 C         0.131691        -0.448431         0.072654
 C         1.041189         0.535790        -0.756312
 C         0.398156         1.148856        -2.005170
 C         1.333313         2.022763        -2.807136
 O         2.026644         3.031478        -2.077713
 C         2.783725         1.929179        -2.636553
 C         3.521962         1.116471        -1.582402
 C         2.547423         0.485585        -0.620049
 O         1.834796         1.460284         0.123233
 H         0.676737        -1.351380         0.250401
 H        -0.052981         0.093289         1.127088
 H        -0.779749        -0.630577        -0.402844
 H         0.208684         0.282555        -2.548417
 H        -0.536748         1.715657        -1.882990
 H         0.834005         2.451034        -3.798706
 H         3.499097         2.342092        -3.535685
 H         4.231173         0.448770        -2.113010
 H         4.175969         1.858262        -1.061361
 H         2.904391        -0.412052        -0.129954
