19
Iteration:  3098charge 0 multiplicity 1
 C         0.200792        -0.743051        -0.287358
 C         1.017070         0.511238        -0.664063
 C         0.435973         1.583158        -1.493307
 C         1.346268         2.034400        -2.722716
 O         2.186348         3.138778        -2.871661
 C         2.788280         1.882379        -2.747750
 C         3.499232         1.340053        -1.358649
 C         2.524112         0.540220        -0.493955
 O         1.653829         1.129768         0.441728
 H        -0.189704        -1.288623        -1.167054
 H         0.868748        -1.266903         0.355774
 H        -0.663425        -0.571745         0.346116
 H        -0.422254         1.079832        -1.934925
 H        -0.026494         2.522253        -0.856478
 H         0.892948         1.738830        -3.708831
 H         3.241092         1.389458        -3.612432
 H         4.342553         0.700464        -1.769267
 H         3.923547         2.138019        -0.825830
 H         2.884416        -0.368915        -0.133979
