19
Iteration:    93charge 0 multiplicity 1
 C         0.179556        -0.641463         0.002961
 C         0.996744         0.514129        -0.637092
 C         0.357018         1.607564        -1.529948
 C         1.280670         2.338838        -2.536636
 O         2.386403         3.284668        -2.403268
 C         2.637220         1.960914        -2.895014
 C         3.348259         1.096610        -1.817829
 C         2.450299         0.242098        -0.811064
 O         1.934893         0.978289         0.340657
 H         0.981553        -1.147460         0.694575
 H        -0.627403        -0.219802         0.684592
 H        -0.428950        -1.318913        -0.629599
 H        -0.340061         1.090639        -2.226489
 H        -0.314441         2.296577        -0.902119
 H         0.664272         2.548732        -3.469600
 H         3.030010         1.734053        -3.902717
 H         4.151382         0.453769        -2.173014
 H         3.883855         1.811348        -1.138408
 H         2.910614        -0.733562        -0.631196
