19
Iteration:  2747charge 0 multiplicity 1
 C         0.073914        -0.592923        -0.204135
 C         1.051156         0.469122        -0.585621
 C         0.426675         1.428863        -1.659308
 C         1.304506         1.914146        -2.796285
 O         2.102446         3.086957        -2.501129
 C         2.798743         1.865322        -2.694955
 C         3.551185         1.359474        -1.504735
 C         2.577080         0.493663        -0.659054
 O         1.798247         1.263492         0.351729
 H        -0.008439        -1.399406        -0.925161
 H         0.131892        -0.885099         0.837607
 H        -0.911335        -0.097548        -0.342709
 H        -0.482706         0.802484        -2.105608
 H         0.057158         2.316259        -1.157947
 H         0.804291         1.891960        -3.818212
 H         3.424296         1.913596        -3.675709
 H         4.538331         0.892589        -1.552489
 H         3.661866         2.238691        -0.799203
 H         3.014731        -0.389853        -0.213152
