19
Iteration:  2150
 C         0.285263        -0.659552        -0.119523
 C         1.038779         0.528849        -0.746681
 C         0.335532         1.447105        -1.800792
 C         1.320393         2.046887        -2.802691
 O         2.234480         3.028576        -2.286690
 C         2.740790         1.820749        -2.727914
 C         3.471281         1.134105        -1.540671
 C         2.550643         0.546553        -0.517387
 O         1.622484         1.447483         0.271541
 H         0.420817        -1.626798        -0.753215
 H         0.907048        -0.837871         0.779394
 H        -0.862093        -0.554671         0.086422
 H        -0.304933         0.731596        -2.486288
 H        -0.335893         2.134576        -1.280647
 H         0.825921         2.424657        -3.780568
 H         3.411061         1.855236        -3.632001
 H         4.076422         0.288515        -1.945848
 H         4.217868         1.855849        -1.192896
 H         3.051519        -0.111761         0.128139
