19
Iteration:  3682charge 0 multiplicity 1
 C         0.120021        -0.594746        -0.075016
 C         0.998271         0.582821        -0.614685
 C         0.410328         1.406553        -1.890268
 C         1.380317         1.926845        -2.917020
 O         2.075936         3.111332        -2.333397
 C         2.815117         1.930447        -2.750228
 C         3.536052         1.185947        -1.500845
 C         2.510584         0.439691        -0.569913
 O         1.801079         1.298115         0.351292
 H         0.058700        -1.366438        -0.852336
 H         0.511236        -0.964421         0.837274
 H        -0.917232        -0.230690         0.081644
 H        -0.456853         0.901557        -2.191779
 H        -0.061105         2.313232        -1.453730
 H         0.900895         2.061157        -3.888577
 H         3.378037         2.268703        -3.615735
 H         4.422820         0.651859        -1.875107
 H         3.905951         1.949079        -0.742207
 H         3.013243        -0.520594        -0.158914
