19
Iteration:  2198
 C         0.181536        -0.601774        -0.082974
 C         1.000057         0.582478        -0.646343
 C         0.425124         1.333869        -1.816180
 C         1.359719         2.042352        -2.833699
 O         2.134132         3.199351        -2.505382
 C         2.806614         1.961067        -2.669501
 C         3.490510         1.134508        -1.519832
 C         2.505885         0.496792        -0.512215
 O         1.729598         1.246314         0.365795
 H         0.080873        -1.463258        -0.723110
 H         0.541655        -0.913799         0.871907
 H        -0.822630        -0.236270         0.115585
 H        -0.109142         0.584417        -2.379723
 H        -0.346703         2.086751        -1.387693
 H         0.983513         2.087871        -3.807774
 H         3.407575         1.965506        -3.593200
 H         3.988643         0.307088        -2.037823
 H         4.337804         1.733686        -1.087780
 H         2.919808        -0.518221        -0.156961
