19
Iteration:  3043charge 0 multiplicity 1
 C         0.129471        -0.526475        -0.234613
 C         1.087256         0.615135        -0.619427
 C         0.379184         1.389981        -1.725940
 C         1.328620         1.855632        -2.803972
 O         2.080801         3.030024        -2.430807
 C         2.859506         1.885217        -2.769852
 C         3.484988         1.329973        -1.495434
 C         2.566170         0.508520        -0.616039
 O         1.747442         1.211281         0.458642
 H         0.245436        -1.321462        -1.033710
 H         0.276795        -1.017985         0.675595
 H        -0.901353        -0.102065        -0.259355
 H        -0.522900         0.941136        -2.119566
 H        -0.028517         2.456034        -1.292413
 H         0.873571         2.073583        -3.851376
 H         3.518241         1.953819        -3.715888
 H         4.524959         0.877073        -1.710926
 H         3.843010         2.155064        -0.970957
 H         2.931970        -0.432749        -0.366600
