19
Iteration:  4851
 C         0.139116        -0.456859        -0.011682
 C         1.075740         0.479432        -0.718614
 C         0.430385         1.170318        -2.031443
 C         1.305027         2.137929        -2.802806
 O         2.118136         3.121490        -2.178296
 C         2.766074         1.921135        -2.666840
 C         3.459755         1.117444        -1.600245
 C         2.567780         0.505214        -0.539784
 O         1.791600         1.334737         0.264330
 H        -0.519140        -1.032354        -0.720101
 H         0.382304        -1.037158         0.843478
 H        -0.568362         0.123488         0.566667
 H         0.348505         0.393218        -2.705377
 H        -0.535057         1.541155        -1.737040
 H         0.761995         2.325803        -3.837850
 H         3.401934         2.188008        -3.528500
 H         4.177077         0.382508        -2.086646
 H         4.189335         1.825935        -1.121854
 H         2.917214        -0.354607         0.022916
