19
Iteration:  1529
 C         0.105755        -0.441815         0.043994
 C         1.069135         0.528891        -0.671682
 C         0.353547         1.195039        -1.857529
 C         1.307115         2.076868        -2.748221
 O         2.110761         3.096830        -2.072457
 C         2.790113         2.022404        -2.707071
 C         3.485690         1.066191        -1.731598
 C         2.566853         0.454592        -0.699394
 O         1.864199         1.339216         0.154262
 H        -0.725293        -0.690670        -0.653534
 H         0.480896        -1.315976         0.332176
 H        -0.429829         0.088840         0.867210
 H        -0.087919         0.390780        -2.492785
 H        -0.411097         1.816678        -1.420871
 H         0.774438         2.491516        -3.676191
 H         3.398636         2.171222        -3.690288
 H         4.033135         0.257709        -2.230162
 H         4.245402         1.551770        -1.104579
 H         3.024645        -0.413918        -0.167095
