19
Iteration:  1291
 C         0.318093        -0.651907        -0.038249
 C         1.001720         0.604939        -0.706273
 C         0.339893         1.587529        -1.698278
 C         1.263301         2.233797        -2.681789
 O         2.206559         3.118645        -2.181073
 C         2.700073         1.946952        -2.704303
 C         3.361672         0.898051        -1.747120
 C         2.496108         0.314348        -0.744671
 O         1.896048         1.310405         0.196048
 H        -0.855778        -0.582589        -0.093809
 H         0.761794        -1.748132        -0.201998
 H         0.458383        -0.464690         1.097834
 H        -0.310972         0.971735        -2.379892
 H        -0.184562         2.400968        -1.139316
 H         0.685917         2.612476        -3.539106
 H         3.195512         2.057851        -3.584740
 H         3.607144         0.052136        -2.347341
 H         4.310773         1.248624        -1.411592
 H         2.960227        -0.465204        -0.180894
