19
Iteration:  3881charge 0 multiplicity 1
 C         0.191333        -0.583889        -0.077830
 C         1.021738         0.581552        -0.656191
 C         0.449536         1.289885        -1.903778
 C         1.330134         1.996391        -2.860559
 O         2.036005         3.095481        -2.255147
 C         2.810816         1.946728        -2.592333
 C         3.450263         1.055001        -1.494501
 C         2.501239         0.479529        -0.596267
 O         1.832229         1.470144         0.195369
 H        -0.162384        -1.168600        -0.853620
 H         0.850490        -1.165320         0.619003
 H        -0.716675        -0.243039         0.447968
 H        -0.097532         0.524223        -2.513685
 H        -0.214517         2.070237        -1.638583
 H         0.930851         2.275504        -3.808552
 H         3.489846         1.958493        -3.503362
 H         4.026762         0.371050        -2.122378
 H         4.188246         1.753010        -0.959658
 H         2.786238        -0.452290         0.079577
