19
Iteration:  1100charge 0 multiplicity 1
 C         0.176761        -0.458768        -0.244500
 C         1.089231         0.567253        -0.602994
 C         0.398797         1.547571        -1.615031
 C         1.238520         2.202652        -2.596711
 O         2.144628         3.161579        -2.173834
 C         2.625188         1.888159        -2.786945
 C         3.328656         0.973583        -1.894486
 C         2.554793         0.310794        -0.699745
 O         2.040961         1.181866         0.381562
 H         0.547630        -1.003944         0.633162
 H        -0.834780        -0.079980        -0.145579
 H         0.207151        -1.243375        -1.121711
 H        -0.359457         0.952638        -2.096545
 H         0.045023         2.415236        -0.985512
 H         0.653140         2.474704        -3.549289
 H         2.991622         1.937667        -3.829036
 H         3.565824         0.083891        -2.460980
 H         4.283933         1.300509        -1.563502
 H         3.032317        -0.557564        -0.294804
