19
Iteration:  1097charge 0 multiplicity 1
 C         0.173922        -0.477382        -0.248341
 C         1.108872         0.584040        -0.612878
 C         0.422125         1.555263        -1.595105
 C         1.219472         2.181042        -2.636989
 O         2.139787         3.177470        -2.184798
 C         2.627510         1.898418        -2.747157
 C         3.321764         0.966269        -1.874118
 C         2.549951         0.326405        -0.713040
 O         2.031599         1.161643         0.376864
 H         0.469559        -0.973691         0.776078
 H        -0.918329        -0.115762        -0.137568
 H         0.265898        -1.200438        -1.006145
 H        -0.384184         1.080841        -2.048832
 H         0.097586         2.372551        -1.013871
 H         0.699220         2.512402        -3.523988
 H         3.026775         1.891200        -3.872231
 H         3.507644         0.035567        -2.557064
 H         4.363377         1.347053        -1.600552
 H         3.091238        -0.634662        -0.333356
