19
Iteration:   518
 C         0.036702        -0.452994         0.071178
 C         1.134482         0.486102        -0.681965
 C         0.406882         1.497276        -1.583384
 C         1.233282         2.240839        -2.514605
 O         2.240057         3.198759        -2.009621
 C         2.633921         2.015306        -2.724323
 C         3.424868         0.927605        -2.007438
 C         2.505765         0.180366        -0.937681
 O         2.007524         1.224566         0.114293
 H        -1.044564         0.031076        -0.046792
 H         0.003800        -1.478239        -0.428743
 H         0.250016        -0.614116         1.072107
 H        -0.382264         0.876465        -2.170617
 H        -0.378868         2.097659        -1.087963
 H         0.750627         2.727815        -3.373331
 H         3.079038         2.156591        -3.726182
 H         3.933984         0.195659        -2.625628
 H         4.349169         1.327857        -1.553910
 H         3.016949        -0.679506        -0.577994
