19
Iteration:  3327
 C         0.111411        -0.692529        -0.442123
 C         1.020973         0.609280        -0.581990
 C         0.421480         1.708697        -1.506076
 C         1.312831         1.888455        -2.704199
 O         2.180192         3.086739        -3.000346
 C         2.827807         1.726462        -2.738294
 C         3.453293         1.556820        -1.258716
 C         2.514086         0.606340        -0.535221
 O         1.778192         0.945719         0.593710
 H        -0.379719        -1.132186        -1.352886
 H         0.883979        -1.393646         0.057448
 H        -0.658062        -0.600695         0.408297
 H        -0.429868         1.401120        -1.964941
 H         0.105321         2.628150        -0.883692
 H         0.946623         1.411253        -3.675911
 H         3.258340         1.269323        -3.625489
 H         4.520896         1.135323        -1.396018
 H         3.705800         2.458835        -0.700981
 H         2.807356        -0.397412        -0.556564
