19
Iteration:  3697
 C         0.153476        -0.572608        -0.110072
 C         1.038011         0.527989        -0.667319
 C         0.438600         1.382379        -1.779168
 C         1.411707         1.973410        -2.894171
 O         2.083690         3.166816        -2.503891
 C         2.868776         1.948338        -2.684062
 C         3.364803         1.233304        -1.527427
 C         2.481800         0.489042        -0.549233
 O         1.781439         1.199103         0.448758
 H        -0.008129        -1.387885        -0.833387
 H         0.744819        -1.062971         0.782124
 H        -0.862303        -0.222289         0.262102
 H        -0.357941         0.860861        -2.380205
 H        -0.040224         2.443684        -1.270924
 H         1.056808         2.058614        -3.912904
 H         3.606045         1.831560        -3.493624
 H         3.999392         0.395010        -1.869414
 H         4.063347         1.953606        -1.091117
 H         2.903621        -0.358610        -0.162265
