19
Iteration:  3203charge 0 multiplicity 1
 C         0.180576        -0.625320        -0.356444
 C         1.064940         0.531840        -0.674211
 C         0.613733         1.653028        -1.538071
 C         1.323666         1.871262        -2.797280
 O         2.151625         3.160240        -2.883147
 C         2.795674         1.790928        -2.739842
 C         3.269854         1.467051        -1.345738
 C         2.553530         0.482167        -0.493503
 O         1.698681         0.980372         0.598851
 H         0.300971        -1.486502        -1.006736
 H         0.506588        -1.052327         0.567833
 H        -0.936446        -0.243271        -0.247859
 H        -0.493084         1.768978        -1.636839
 H         0.908412         2.422439        -0.934482
 H         0.844238         1.637230        -3.755661
 H         3.239030         1.483745        -3.767015
 H         4.409131         1.399542        -1.409042
 H         3.072619         2.542734        -1.002830
 H         2.955412        -0.637970        -0.313416
