19
Iteration:   426
 C         0.113092        -0.644167        -0.072074
 C         1.086755         0.499062        -0.676866
 C         0.400321         1.595289        -1.408924
 C         1.268094         2.207997        -2.557190
 O         2.283775         3.223821        -2.195046
 C         2.634330         1.910103        -2.814713
 C         3.385636         0.949630        -1.903627
 C         2.520773         0.368037        -0.814481
 O         1.913551         1.205436         0.170083
 H         0.009994        -0.672405         0.965174
 H        -0.820978        -0.514298        -0.474226
 H         0.504294        -1.690607        -0.360809
 H        -0.619547         1.398849        -1.908433
 H         0.215813         2.451967        -0.707370
 H         0.559744         2.487641        -3.282566
 H         3.003817         1.985897        -3.767493
 H         3.969058         0.209262        -2.496890
 H         4.205851         1.530090        -1.546847
 H         2.953146        -0.537431        -0.435026
