19
Iteration:  1586charge 0 multiplicity 1
 C         0.161269        -0.555574        -0.025145
 C         1.062455         0.540636        -0.708008
 C         0.432177         1.393214        -1.814696
 C         1.302968         2.073730        -2.806235
 O         2.037340         3.218941        -2.365710
 C         2.793966         1.958937        -2.633536
 C         3.425117         1.063155        -1.618445
 C         2.525940         0.395936        -0.607585
 O         1.885223         1.272392         0.335428
 H        -0.930983        -0.403290        -0.108951
 H         0.363123        -1.540752        -0.344846
 H         0.538565        -0.557657         0.912608
 H        -0.153985         0.679199        -2.398543
 H        -0.361717         2.011467        -1.329621
 H         0.849271         2.229716        -3.865248
 H         3.393524         1.980563        -3.672383
 H         3.937343         0.313644        -2.266860
 H         4.245717         1.620976        -1.115357
 H         2.947820        -0.480571        -0.148687
