19
Iteration:  4707charge 0 multiplicity 1
 C         0.155393        -0.595271        -0.208905
 C         1.070504         0.487680        -0.734200
 C         0.458361         1.638161        -1.621198
 C         1.348253         1.939868        -2.877568
 O         2.113784         3.140829        -2.747452
 C         2.794537         1.851421        -2.701485
 C         3.399813         1.383161        -1.312943
 C         2.570737         0.449177        -0.521334
 O         1.722889         1.049458         0.467459
 H        -0.387773        -1.164686        -1.120026
 H         0.847212        -1.282019         0.392360
 H        -0.604863        -0.165846         0.382372
 H        -0.573756         1.356680        -2.026710
 H         0.547543         2.556948        -0.974534
 H         0.875233         1.669245        -3.955469
 H         3.374100         1.704072        -3.613050
 H         4.423859         0.861720        -1.432057
 H         3.569435         2.238117        -0.625016
 H         3.004424        -0.528448        -0.214404
