19
Iteration:   736
 C         0.288412        -0.651733        -0.259295
 C         1.049114         0.637625        -0.647385
 C         0.311067         1.704885        -1.459782
 C         1.153233         2.275751        -2.590653
 O         2.355317         3.117129        -2.155894
 C         2.565584         1.888139        -2.865073
 C         3.311638         0.901669        -1.891009
 C         2.471353         0.300394        -0.780976
 O         2.016858         1.192277         0.366577
 H        -0.837354        -0.428786         0.093869
 H         0.450964        -1.350346        -1.175070
 H         0.746792        -1.267516         0.529141
 H        -0.551035         1.323299        -1.885922
 H         0.080204         2.474625        -0.675297
 H         0.703242         2.771741        -3.428456
 H         2.990883         2.051894        -3.804201
 H         3.712056         0.071650        -2.541660
 H         4.130284         1.503498        -1.482243
 H         2.861243        -0.633638        -0.450232
