19
Iteration:  3828charge 0 multiplicity 1
 C         0.052309        -0.658036        -0.138114
 C         1.010256         0.464436        -0.612804
 C         0.481887         1.411830        -1.694689
 C         1.346834         2.029452        -2.827843
 O         2.139505         3.205901        -2.570001
 C         2.823577         1.897160        -2.811733
 C         3.478639         1.250497        -1.522310
 C         2.576383         0.473272        -0.528629
 O         1.738070         1.243652         0.438138
 H         0.159123        -1.486348        -0.883022
 H         0.354141        -1.005761         0.907697
 H        -1.007121        -0.287833         0.007558
 H        -0.212786         0.855950        -2.200498
 H        -0.144680         2.246952        -1.191917
 H         0.883498         1.966438        -3.807583
 H         3.546919         1.844544        -3.693260
 H         4.318406         0.601569        -1.848592
 H         3.934047         2.155121        -0.994078
 H         2.924842        -0.357183         0.054396
