19
Iteration:  2371charge 0 multiplicity 1
 C         0.208155        -0.437599        -0.014920
 C         1.077478         0.543318        -0.730400
 C         0.375445         1.246835        -1.920234
 C         1.402362         1.905944        -2.820765
 O         2.062066         3.138248        -2.233519
 C         2.828943         2.004855        -2.627815
 C         3.439521         1.095111        -1.597054
 C         2.498126         0.468657        -0.589211
 O         1.760344         1.384299         0.267013
 H         0.097875        -1.420451        -0.588429
 H         0.546954        -0.675391         1.013560
 H        -0.881485        -0.137746         0.009578
 H        -0.089100         0.420957        -2.544986
 H        -0.340004         1.885836        -1.528667
 H         1.022050         2.147673        -3.850581
 H         3.476158         2.089445        -3.528190
 H         3.960245         0.252640        -2.074167
 H         4.251958         1.675626        -1.141170
 H         2.870714        -0.369424        -0.083457
