19
Iteration:  4471
 C         0.264084        -0.761397        -0.349270
 C         0.970651         0.578874        -0.584476
 C         0.390636         1.598367        -1.678258
 C         1.293208         1.938355        -2.849058
 O         2.147117         3.100997        -2.572633
 C         2.797903         1.835337        -2.675761
 C         3.476488         1.246326        -1.424712
 C         2.527839         0.522267        -0.516214
 O         1.763463         1.290891         0.437415
 H         0.433472        -1.609490        -0.944641
 H         0.182644        -0.989252         0.641508
 H        -0.895572        -0.532822        -0.572730
 H        -0.535912         1.218471        -2.049531
 H         0.299831         2.525773        -0.952504
 H         0.815161         2.006825        -3.820883
 H         3.126327         1.630626        -3.757222
 H         4.220377         0.455308        -1.765868
 H         4.192702         2.052625        -0.969910
 H         2.978252        -0.375987        -0.099838
