19
Iteration:  1136charge 0 multiplicity 1
 C         0.201480        -0.577072        -0.001929
 C         1.038108         0.553993        -0.669833
 C         0.341410         1.448862        -1.688052
 C         1.251133         2.294648        -2.533005
 O         2.346497         3.128231        -2.085828
 C         2.629342         1.885180        -2.794850
 C         3.380989         0.986529        -1.864646
 C         2.492919         0.370053        -0.784225
 O         1.926574         1.257004         0.177915
 H         0.847879        -1.397678         0.218311
 H        -0.244016        -0.355837         0.946025
 H        -0.647191        -0.888660        -0.738475
 H        -0.421528         0.996955        -2.455662
 H        -0.457839         2.116486        -1.209289
 H         0.768202         2.653415        -3.491082
 H         2.943427         2.037497        -3.764611
 H         3.649898         0.250838        -2.579752
 H         4.235642         1.464462        -1.423728
 H         2.981656        -0.438233        -0.317630
