19
Iteration:   855
 C         0.213690        -0.304675         0.177104
 C         1.020719         0.566317        -0.738170
 C         0.394308         1.370278        -1.834147
 C         1.303288         2.217724        -2.711168
 O         2.015696         3.195838        -1.847331
 C         2.715798         2.130892        -2.582694
 C         3.348029         0.825900        -2.022514
 C         2.428862         0.158749        -0.928042
 O         2.157266         1.140608         0.147155
 H        -0.046809         0.330823         1.070186
 H        -0.761662        -0.685658        -0.254342
 H         0.774091        -1.174710         0.383342
 H        -0.368064         0.573645        -2.454582
 H        -0.241890         2.276399        -1.461219
 H         0.763978         2.569833        -3.551358
 H         3.396280         2.654098        -3.400832
 H         3.622991         0.263043        -2.927910
 H         4.216337         1.148589        -1.474117
 H         2.825680        -0.778039        -0.430917
