19
Iteration:  2479charge 0 multiplicity 1
 C         0.321840        -0.708704        -0.182401
 C         1.020779         0.578216        -0.617406
 C         0.443059         1.454228        -1.738985
 C         1.350127         1.983248        -2.809257
 O         2.105672         3.130641        -2.451269
 C         2.837197         1.893062        -2.695844
 C         3.432576         1.045465        -1.530510
 C         2.495043         0.545817        -0.488091
 O         1.639336         1.431495         0.308776
 H        -0.222305        -1.032019        -1.078078
 H         0.885884        -1.489413         0.122476
 H        -0.334908        -0.430856         0.638981
 H        -0.339735         0.860686        -2.339130
 H        -0.141199         2.265634        -1.286133
 H         0.961716         1.959280        -3.905944
 H         3.412940         1.981483        -3.613986
 H         3.775214         0.111298        -2.033250
 H         4.263000         1.553433        -1.103784
 H         3.042227        -0.112284         0.240958
