19
Iteration:   711
 C         0.027170        -0.539524        -0.176584
 C         1.076862         0.516122        -0.691884
 C         0.421327         1.586535        -1.412844
 C         1.206945         2.258471        -2.464928
 O         2.263433         3.184646        -2.264128
 C         2.601716         1.901165        -2.851292
 C         3.421028         1.031166        -1.885234
 C         2.599144         0.378047        -0.775919
 O         1.976432         1.057229         0.276650
 H        -0.746575        -0.053488         0.363503
 H        -0.241527        -1.153434        -0.990411
 H         0.528383        -1.345208         0.547470
 H        -0.404174         1.230929        -1.956865
 H         0.051840         2.257745        -0.618281
 H         0.658486         2.538140        -3.372544
 H         2.924892         2.025975        -3.969491
 H         3.750337         0.178323        -2.493004
 H         4.279771         1.588334        -1.532876
 H         3.157626        -0.575686        -0.458201
