19
Iteration:  3296
 C         0.260715        -0.639703        -0.537243
 C         1.075303         0.570973        -0.674607
 C         0.671202         1.742080        -1.472584
 C         1.252932         1.851430        -2.837026
 O         2.069548         3.015552        -2.863545
 C         2.739871         1.739071        -2.727865
 C         3.307502         1.428090        -1.251669
 C         2.551083         0.500020        -0.419621
 O         1.680947         1.137369         0.560467
 H        -0.277674        -1.008934        -1.476354
 H         0.965485        -1.595840        -0.342084
 H        -0.428125        -0.528417         0.349858
 H        -0.437897         1.861661        -1.543247
 H         0.981664         2.705071        -0.857570
 H         0.792464         1.587577        -3.819945
 H         3.432063         1.458415        -3.541464
 H         4.330281         0.954048        -1.380441
 H         3.453481         2.386501        -0.700989
 H         2.904613        -0.431163        -0.187296
