19
Iteration:  3746charge 0 multiplicity 1
 C         0.192513        -0.740385        -0.297042
 C         1.055184         0.541949        -0.641694
 C         0.429533         1.533436        -1.653233
 C         1.293412         1.987740        -2.779371
 O         2.201627         3.085752        -2.555300
 C         2.769400         1.788738        -2.747384
 C         3.399399         1.291814        -1.445671
 C         2.482054         0.552525        -0.515140
 O         1.783631         1.317655         0.408150
 H        -0.270745        -1.152360        -1.202881
 H         0.754916        -1.479505         0.165352
 H        -0.634969        -0.453026         0.310443
 H        -0.464230         1.089372        -2.243283
 H         0.049508         2.367650        -1.203061
 H         0.825172         1.897356        -3.809377
 H         3.447446         1.606137        -3.582133
 H         4.200828         0.557962        -1.610537
 H         3.901229         2.157377        -0.948961
 H         3.006162        -0.364196         0.043504
