19
Iteration:  2933charge 0 multiplicity 1
 C         0.158101        -0.356147        -0.018777
 C         1.128896         0.507180        -0.737078
 C         0.481237         1.027846        -2.022973
 C         1.317497         2.096642        -2.716335
 O         1.964661         3.103113        -1.973603
 C         2.750042         1.944701        -2.633436
 C         3.504124         1.041556        -1.623713
 C         2.592029         0.460111        -0.520082
 O         1.801868         1.502930         0.012077
 H        -0.151297        -1.146561        -0.717799
 H         0.414817        -0.646172         0.935420
 H        -0.823519         0.177751         0.086046
 H         0.329652         0.220933        -2.665260
 H        -0.510405         1.364249        -1.785520
 H         0.792491         2.291332        -3.764853
 H         3.438162         2.218165        -3.525645
 H         3.690584         0.122545        -2.250615
 H         4.377066         1.428979        -1.216729
 H         3.030620        -0.233447         0.175665
