19
Iteration:  4924charge 0 multiplicity 1
 C         0.216987        -0.343198         0.007938
 C         1.094940         0.600689        -0.714116
 C         0.519780         1.087880        -2.148032
 C         1.324547         2.141436        -2.841669
 O         1.983952         3.018791        -1.992717
 C         2.747161         1.986874        -2.580368
 C         3.376022         0.944245        -1.612987
 C         2.549952         0.445360        -0.609099
 O         1.821427         1.463521         0.146329
 H         0.009983        -1.318809        -0.464645
 H         0.517035        -0.526281         1.036871
 H        -0.758419        -0.029127         0.277221
 H         0.398196         0.112125        -2.743759
 H        -0.395398         1.508700        -1.889230
 H         0.984262         2.583505        -3.689669
 H         3.441066         2.416758        -3.250143
 H         3.909704         0.176061        -2.096803
 H         4.167003         1.492852        -1.131364
 H         2.919892        -0.338888         0.086904
