19
Iteration:  4106charge 0 multiplicity 1
 C         0.143616        -0.716338        -0.300359
 C         0.988671         0.555818        -0.530457
 C         0.442292         1.536220        -1.694703
 C         1.372858         1.894417        -2.821035
 O         2.064734         3.173730        -2.767038
 C         2.803424         1.972189        -2.692121
 C         3.459029         1.284657        -1.456871
 C         2.528168         0.459458        -0.460314
 O         1.788436         1.203391         0.541508
 H         0.003167        -1.244014        -1.303314
 H         0.664285        -1.508709         0.357415
 H        -0.755969        -0.400346         0.194925
 H        -0.426088         1.193350        -2.144437
 H         0.201705         2.596038        -1.128179
 H         0.991495         1.825755        -3.863592
 H         3.440556         1.899508        -3.538370
 H         4.040102         0.365465        -1.849293
 H         4.250586         1.874026        -0.938338
 H         3.113193        -0.321725        -0.097298
