19
Iteration:  2997
 C         0.296436        -0.628885         0.000931
 C         1.062151         0.499275        -0.671150
 C         0.427909         1.240544        -1.872263
 C         1.365509         2.085022        -2.879811
 O         2.160670         3.254269        -2.336910
 C         2.782495         1.985573        -2.654666
 C         3.401228         1.014010        -1.549145
 C         2.458551         0.437231        -0.506960
 O         1.661908         1.436659         0.233456
 H        -0.090748        -1.337270        -0.725492
 H         0.886917        -1.182744         0.715885
 H        -0.600123        -0.112913         0.518588
 H        -0.005913         0.424101        -2.524093
 H        -0.584706         1.853170        -1.561810
 H         1.082736         2.218793        -3.993922
 H         3.490200         2.193963        -3.552654
 H         3.961337         0.159402        -2.137271
 H         4.264051         1.485623        -1.094330
 H         2.934955        -0.189816         0.218438
