19
Iteration:  3126charge 0 multiplicity 1
 C         0.248861        -0.695330        -0.349831
 C         1.005437         0.524465        -0.592861
 C         0.462923         1.626548        -1.582918
 C         1.294111         1.930019        -2.893169
 O         2.216814         3.052295        -2.691216
 C         2.755096         1.784001        -2.769307
 C         3.388817         1.435543        -1.395615
 C         2.527976         0.558552        -0.505886
 O         1.708034         1.141687         0.548520
 H        -0.239034        -1.038037        -1.275047
 H         0.965278        -1.527997        -0.098230
 H        -0.602357        -0.558363         0.457175
 H        -0.626918         1.466191        -1.744205
 H         0.617879         2.523569        -1.086670
 H         0.906321         1.839176        -3.911399
 H         3.254759         1.454495        -3.765608
 H         4.317907         0.904190        -1.670758
 H         3.447816         2.444071        -0.865945
 H         2.997062        -0.434567        -0.071169
