19
Iteration:  1626
 C         0.276319        -0.623391        -0.139830
 C         1.046688         0.559407        -0.718433
 C         0.353027         1.422036        -1.708451
 C         1.280260         2.045922        -2.759142
 O         2.188414         3.016405        -2.242781
 C         2.753269         1.862522        -2.745994
 C         3.455563         1.108232        -1.612384
 C         2.527675         0.535022        -0.619590
 O         1.727259         1.430105         0.233470
 H        -0.406541        -0.292334         0.741707
 H        -0.333062        -1.176383        -0.902502
 H         1.124446        -1.431544         0.283485
 H        -0.404992         0.748270        -2.245939
 H        -0.145266         2.215669        -1.168170
 H         0.851327         2.300523        -3.730493
 H         3.229933         1.923934        -3.664225
 H         4.148663         0.314120        -1.853977
 H         4.039614         1.819180        -1.022439
 H         2.966082        -0.329919        -0.033709
