19
Iteration:  1074charge 0 multiplicity 1
 C         0.171624        -0.604781        -0.111662
 C         1.038979         0.492503        -0.663376
 C         0.351521         1.699269        -1.490130
 C         1.213291         2.189821        -2.701448
 O         2.123651         3.254724        -2.319595
 C         2.749173         2.024325        -2.736572
 C         3.411432         0.949444        -1.861600
 C         2.509636         0.281675        -0.728427
 O         2.012683         1.076416         0.335817
 H         0.272193        -0.557101         1.061793
 H        -0.947662        -0.332837        -0.315340
 H         0.388632        -1.562050        -0.435456
 H        -0.586674         1.347855        -1.871388
 H         0.254783         2.549930        -0.897717
 H         0.734310         2.249568        -3.644351
 H         3.385734         2.249357        -3.736163
 H         3.695710         0.055232        -2.543840
 H         4.396062         1.254960        -1.355686
 H         2.919466        -0.791868        -0.389808
