19
Iteration:  2607charge 0 multiplicity 1
 C         0.164756        -0.467386         0.104856
 C         0.996603         0.523079        -0.645298
 C         0.437348         1.112220        -1.996094
 C         1.410853         1.997307        -2.830367
 O         2.119864         3.214043        -2.116084
 C         2.783499         2.079454        -2.630818
 C         3.380744         0.999865        -1.712597
 C         2.534695         0.502760        -0.559511
 O         1.765317         1.424970         0.157784
 H         0.109164        -1.444680        -0.571389
 H         0.697472        -0.554318         1.046123
 H        -0.923312        -0.162319         0.175687
 H         0.505081         0.195980        -2.546034
 H        -0.672264         1.342036        -2.052254
 H         1.049833         2.221428        -3.823260
 H         3.469192         2.208361        -3.508709
 H         3.734609         0.165551        -2.331011
 H         4.423657         1.309399        -1.293172
 H         2.973727        -0.309808         0.092974
