19
Iteration:  2057
 C         0.103686        -0.405606         0.194150
 C         1.063219         0.404255        -0.768372
 C         0.381209         1.080986        -2.074247
 C         1.380777         2.066904        -2.847879
 O         2.061955         3.104663        -2.113169
 C         2.878048         1.997333        -2.637391
 C         3.513701         1.151159        -1.539149
 C         2.504740         0.462421        -0.693087
 O         1.743849         1.407944         0.094026
 H        -0.501338        -1.202654        -0.227660
 H         0.726724        -0.709740         1.236840
 H        -0.529766         0.362774         0.621128
 H         0.079002         0.285275        -2.722919
 H        -0.504122         1.604660        -1.672931
 H         0.905298         2.394241        -3.681683
 H         3.577304         2.336514        -3.345007
 H         4.228217         0.397519        -1.948694
 H         4.139824         1.728471        -0.816163
 H         3.113230        -0.339926        -0.142499
