19
Iteration:  2511charge 0 multiplicity 1
 C         0.290127        -0.660222        -0.039326
 C         1.032997         0.515014        -0.656622
 C         0.433653         1.343273        -1.818208
 C         1.307422         2.098932        -2.813929
 O         2.260795         3.156414        -2.461222
 C         2.745350         1.933627        -2.743820
 C         3.424909         1.154984        -1.508364
 C         2.487173         0.545872        -0.541155
 O         1.657702         1.332446         0.358722
 H         0.125820        -1.415874        -0.862073
 H         0.676576        -1.008502         0.818513
 H        -0.741748        -0.271925         0.082150
 H        -0.127444         0.624409        -2.483047
 H        -0.341265         1.997729        -1.326899
 H         0.729951         2.154003        -3.800620
 H         3.242347         1.791618        -3.700090
 H         3.713582         0.140948        -1.955218
 H         4.394578         1.429486        -1.144515
 H         3.009419        -0.281548         0.081290
