19
Iteration:  1688
 C         0.113355        -0.570683         0.035008
 C         1.050870         0.516435        -0.628641
 C         0.448345         1.212138        -1.913231
 C         1.397895         2.056001        -2.773025
 O         2.046297         3.208447        -2.289027
 C         2.846303         2.019823        -2.691566
 C         3.404545         1.044341        -1.655965
 C         2.549311         0.472565        -0.599172
 O         1.788279         1.399738         0.281545
 H         0.491189        -0.854493         0.937677
 H        -1.003717        -0.291199        -0.034692
 H         0.315207        -1.428607        -0.456089
 H        -0.064002         0.495593        -2.483521
 H        -0.390706         1.943107        -1.560605
 H         1.116582         2.033852        -3.840103
 H         3.340518         2.165585        -3.709330
 H         3.820080         0.184028        -2.247617
 H         4.249478         1.499665        -1.076710
 H         3.078843        -0.326133        -0.074579
