19
Iteration:  3864charge 0 multiplicity 1
 C         0.271977        -0.466231        -0.107501
 C         1.072033         0.630625        -0.746395
 C         0.317805         1.366218        -1.829073
 C         1.344903         1.988551        -2.816700
 O         2.066225         3.080565        -2.301181
 C         2.809517         1.838790        -2.688922
 C         3.531462         1.156655        -1.479450
 C         2.481831         0.378005        -0.572881
 O         1.749295         1.342080         0.261610
 H         0.078797        -1.347798        -0.891025
 H         0.888736        -0.898537         0.648647
 H        -0.732017        -0.174223         0.254310
 H        -0.338996         0.635998        -2.361736
 H        -0.391835         2.152508        -1.330862
 H         0.973353         2.006773        -3.889784
 H         3.341782         2.189543        -3.535288
 H         4.432312         0.536838        -1.725970
 H         3.891226         2.014082        -0.915842
 H         2.887339        -0.440624        -0.117918
