19
Iteration:  1848
 C         0.217516        -0.582779        -0.026499
 C         1.047824         0.550063        -0.760860
 C         0.322553         1.292229        -1.852369
 C         1.335075         1.974984        -2.825198
 O         2.180274         3.051350        -2.312929
 C         2.822630         1.899379        -2.695355
 C         3.529766         1.230589        -1.505445
 C         2.534854         0.514501        -0.558797
 O         1.660102         1.392500         0.213591
 H        -0.693728        -1.111516        -0.533543
 H         0.923305        -1.372286         0.407319
 H        -0.285446        -0.140494         0.917903
 H        -0.518240         0.517918        -2.271019
 H        -0.340442         2.074990        -1.373370
 H         1.095964         2.086844        -3.822927
 H         3.340555         2.059180        -3.563090
 H         4.376333         0.586379        -1.840597
 H         3.973751         2.126614        -1.023213
 H         2.994202        -0.327063        -0.009625
