19
Iteration:  1976charge 0 multiplicity 1
 C         0.275386        -0.646966        -0.028537
 C         0.972992         0.572422        -0.610880
 C         0.453566         1.233490        -1.850966
 C         1.345563         2.076445        -2.789349
 O         2.196603         3.176825        -2.415563
 C         2.834642         1.954878        -2.698053
 C         3.427475         1.025425        -1.609004
 C         2.482015         0.593723        -0.540764
 O         1.635757         1.417275         0.337443
 H         0.554711        -1.551278        -0.674697
 H         0.584823        -0.872358         0.922028
 H        -0.859084        -0.580304        -0.030165
 H        -0.017402         0.518614        -2.453422
 H        -0.377722         1.864081        -1.415543
 H         0.909183         2.224306        -3.846243
 H         3.450378         2.006922        -3.716651
 H         3.821392         0.131098        -2.151379
 H         4.288123         1.575974        -1.175722
 H         2.860499        -0.372703        -0.062662
