19
Iteration:   290charge 0 multiplicity 1
 C         0.143506        -0.321932         0.102861
 C         1.008098         0.664970        -0.589329
 C         0.402451         1.356641        -1.808251
 C         1.233753         2.246466        -2.661682
 O         2.137873         3.172449        -1.954865
 C         2.655926         2.079062        -2.703252
 C         3.387625         0.905376        -1.938981
 C         2.453509         0.227537        -0.872281
 O         2.133810         1.082587         0.151487
 H         0.777097        -1.018900         0.552466
 H        -0.537104         0.103812         0.895028
 H        -0.427921        -0.837546        -0.612586
 H         0.288291         0.451340        -2.400156
 H        -0.643861         1.752216        -1.642863
 H         0.670769         2.785352        -3.551417
 H         3.434308         2.277406        -3.544237
 H         3.657352         0.165975        -2.690052
 H         4.282595         1.293758        -1.357244
 H         2.778544        -0.802156        -0.522951
