19
Iteration:   367charge 0 multiplicity 1
 C         0.159658        -0.564461        -0.122318
 C         1.036645         0.607730        -0.598224
 C         0.396322         1.500353        -1.619890
 C         1.208679         2.244826        -2.567547
 O         2.192456         3.169500        -2.172230
 C         2.729185         2.001363        -2.755369
 C         3.289550         0.857583        -1.949075
 C         2.521213         0.362681        -0.759368
 O         2.065659         1.228736         0.301755
 H         0.785773        -1.306722         0.330913
 H        -0.716514        -0.320523         0.571472
 H        -0.230081        -0.964724        -0.980611
 H        -0.160242         0.862072        -2.234061
 H        -0.323057         2.078703        -1.026223
 H         0.681159         2.712120        -3.483843
 H         3.386116         2.195853        -3.728153
 H         3.342542        -0.006599        -2.624800
 H         4.296284         1.062519        -1.461961
 H         2.761585        -0.650379        -0.352874
