19
Iteration:   244
 C         0.143877        -0.509834        -0.037481
 C         1.107866         0.509094        -0.717703
 C         0.371068         1.486748        -1.603531
 C         1.220388         2.280139        -2.593395
 O         2.232540         3.108332        -1.966437
 C         2.673267         2.056652        -2.725396
 C         3.323629         0.806450        -2.009448
 C         2.667785         0.356174        -0.773128
 O         1.909131         1.280699         0.117882
 H         0.499220        -0.753134         1.039551
 H        -0.806985        -0.055564         0.075727
 H         0.003630        -1.347577        -0.518140
 H        -0.332853         0.860210        -2.052754
 H        -0.156887         2.186454        -0.924880
 H         0.714853         2.724413        -3.538176
 H         3.173278         2.233147        -3.780129
 H         3.171050        -0.109414        -2.565560
 H         4.423588         0.935646        -1.742195
 H         2.997478        -0.571996        -0.279444
