19
Iteration:   906charge 0 multiplicity 1
 C         0.153383        -0.444651         0.007609
 C         1.100554         0.553856        -0.642385
 C         0.349558         1.326552        -1.693720
 C         1.221124         2.359118        -2.512766
 O         2.320196         3.137970        -1.910858
 C         2.604673         2.013605        -2.854026
 C         3.293504         0.873364        -2.023852
 C         2.537570         0.295678        -0.817513
 O         2.014877         1.242644         0.154673
 H        -0.616389         0.045519         0.534231
 H        -0.392255        -0.918250        -0.770919
 H         0.772318        -1.319774         0.561880
 H        -0.013916         0.628011        -2.320468
 H        -0.431106         1.864312        -1.243657
 H         0.545249         3.042080        -3.133155
 H         2.891797         2.224213        -3.901057
 H         3.682017         0.023744        -2.632402
 H         4.208489         1.392665        -1.554363
 H         2.919634        -0.652557        -0.379892
