19
Iteration:  1133charge 0 multiplicity 1
 C         0.187979        -0.578896        -0.027417
 C         1.038884         0.553698        -0.639169
 C         0.343943         1.452572        -1.682995
 C         1.222180         2.296239        -2.554301
 O         2.352953         3.107299        -2.097750
 C         2.618665         1.881084        -2.754186
 C         3.395803         1.003456        -1.872815
 C         2.500741         0.384274        -0.797672
 O         1.942048         1.260235         0.193861
 H         0.879259        -1.389287         0.189985
 H        -0.377158        -0.328134         0.879674
 H        -0.661493        -0.903604        -0.824244
 H        -0.335040         0.936696        -2.346626
 H        -0.446370         2.121641        -1.225872
 H         0.681425         2.760606        -3.480069
 H         2.959330         1.972533        -3.839857
 H         3.681156         0.186882        -2.545531
 H         4.272509         1.459766        -1.449064
 H         2.978359        -0.457147        -0.333345
