19
Iteration:  4687
 C         0.112761        -0.735161        -0.179323
 C         1.013226         0.534670        -0.684784
 C         0.575771         1.611414        -1.641389
 C         1.373175         1.886178        -2.890639
 O         2.104169         3.165097        -2.838221
 C         2.803377         1.954044        -2.620845
 C         3.455754         1.421101        -1.392745
 C         2.492950         0.480627        -0.525836
 O         1.696047         1.028834         0.527458
 H        -0.574660        -0.840366        -1.032730
 H         0.683997        -1.616317         0.153856
 H        -0.395889        -0.399494         0.701493
 H        -0.650069         1.569423        -1.828537
 H         0.651375         2.512053        -1.058103
 H         0.955991         1.907058        -3.969229
 H         3.475102         1.571239        -3.470177
 H         4.267438         0.808051        -1.753355
 H         3.980903         2.159414        -0.800774
 H         2.909411        -0.467316        -0.141887
