19
Iteration:  2538charge 0 multiplicity 1
 C         0.142399        -0.527509        -0.079439
 C         1.040139         0.599309        -0.685761
 C         0.394088         1.261864        -1.860616
 C         1.315381         2.004421        -2.773073
 O         2.101394         3.144116        -2.242997
 C         2.779662         1.853562        -2.812842
 C         3.534954         1.122220        -1.544697
 C         2.499138         0.452149        -0.610015
 O         1.839751         1.403867         0.308243
 H         0.317205        -1.463910        -0.583535
 H         0.303028        -0.665377         1.096138
 H        -0.897135        -0.429852        -0.386558
 H        -0.177185         0.499352        -2.474604
 H        -0.294407         1.987808        -1.455575
 H         0.885319         2.061252        -3.738286
 H         3.218649         2.090751        -3.817620
 H         4.441500         0.552057        -1.596561
 H         3.912544         1.987315        -0.934139
 H         2.801928        -0.425863        -0.142795
