19
Iteration:  1716charge 0 multiplicity 1
 C         0.238822        -0.354096         0.038569
 C         1.096870         0.538781        -0.804557
 C         0.348810         1.199781        -1.935010
 C         1.344687         1.978641        -2.790693
 O         2.019892         3.049669        -2.112859
 C         2.815839         1.945871        -2.625134
 C         3.484480         1.120945        -1.532441
 C         2.574926         0.417024        -0.642114
 O         1.730338         1.412208         0.115600
 H         0.999322        -1.078295         0.566675
 H        -0.365177         0.308701         0.609833
 H        -0.371088        -1.185210        -0.565620
 H        -0.355995         0.418810        -2.429226
 H        -0.265392         1.976394        -1.543801
 H         0.949602         2.289637        -3.810816
 H         3.435184         2.237201        -3.477629
 H         4.061836         0.395808        -2.108243
 H         4.191919         1.759211        -1.006474
 H         2.894264        -0.526302        -0.170544
