19
Iteration:    43
 C         0.247996        -0.473169        -0.279127
 C         1.086077         0.688836        -0.615222
 C         0.383223         1.653519        -1.516967
 C         1.155080         2.168485        -2.625136
 O         2.148351         3.098990        -2.117924
 C         2.620559         1.856258        -2.725429
 C         3.350207         0.874280        -1.914076
 C         2.548879         0.380075        -0.753438
 O         2.037560         1.168463         0.332698
 H         0.604535        -1.022954         0.489343
 H        -0.790440        -0.216042        -0.078694
 H         0.332969        -1.128107        -1.205303
 H        -0.411537         1.073062        -2.036169
 H        -0.029900         2.443477        -0.967865
 H         0.664524         2.475731        -3.536072
 H         3.182915         1.990645        -3.694319
 H         3.517437        -0.059532        -2.549548
 H         4.362369         1.163586        -1.661120
 H         2.931847        -0.628493        -0.417168
