19
Iteration:  2077charge 0 multiplicity 1
 C         0.184144        -0.337574         0.151295
 C         0.972114         0.504419        -0.753939
 C         0.517979         1.130654        -2.057479
 C         1.388148         2.023491        -2.816410
 O         2.049508         3.199433        -2.227406
 C         2.799312         2.044754        -2.603878
 C         3.496354         1.124053        -1.592487
 C         2.497036         0.393350        -0.550344
 O         1.703262         1.262635         0.192695
 H        -0.240195        -1.226635        -0.334104
 H         0.907499        -0.725597         0.847992
 H        -0.600348         0.245098         0.656720
 H         0.382311         0.329146        -2.688176
 H        -0.497662         1.593275        -1.917920
 H         1.082219         2.082847        -3.852077
 H         3.436972         2.159515        -3.538157
 H         4.038758         0.496095        -2.311535
 H         4.308141         1.701714        -1.096529
 H         2.904496        -0.493877         0.080495
