19
Iteration:  1957
 C         0.231275        -0.676406        -0.075900
 C         0.990669         0.439780        -0.718331
 C         0.275518         1.381102        -1.807140
 C         1.353887         2.012391        -2.721598
 O         2.214794         3.167867        -2.406881
 C         2.806143         1.839755        -2.720529
 C         3.511411         1.201779        -1.545863
 C         2.493102         0.507366        -0.516623
 O         1.713460         1.436517         0.230146
 H         0.485985        -1.732913        -0.351678
 H         0.623537        -0.724735         0.943281
 H        -0.841674        -0.366006        -0.157307
 H        -0.226836         0.660369        -2.447934
 H        -0.412580         2.104960        -1.302994
 H         0.993926         2.224851        -3.657020
 H         3.247616         1.842024        -3.674733
 H         4.121036         0.324858        -1.823507
 H         4.229252         1.893057        -1.026339
 H         3.017216        -0.210265         0.202106
