19
Iteration:  3876charge 0 multiplicity 1
 C         0.215128        -0.557992        -0.093537
 C         0.997488         0.615528        -0.673431
 C         0.462064         1.325254        -1.895730
 C         1.312440         1.993310        -2.851480
 O         2.022452         3.082381        -2.267896
 C         2.815033         1.921724        -2.604817
 C         3.481493         1.080287        -1.512927
 C         2.532120         0.433656        -0.571489
 O         1.811945         1.452603         0.201679
 H        -0.080439        -1.310605        -0.946206
 H         0.820008        -1.073530         0.638433
 H        -0.648315        -0.245664         0.503637
 H        -0.181666         0.538289        -2.453122
 H        -0.297832         2.115068        -1.528544
 H         0.860945         2.314327        -3.839076
 H         3.447326         1.891777        -3.460663
 H         4.256502         0.380639        -1.930819
 H         4.001596         1.712837        -0.797383
 H         2.716920        -0.468437        -0.075738
