19
Iteration:  2009
 C         0.214270        -0.493097        -0.117062
 C         1.088187         0.601373        -0.701090
 C         0.450192         1.124713        -2.008614
 C         1.341487         2.038654        -2.843693
 O         2.024855         3.077310        -2.211830
 C         2.795130         1.971627        -2.612561
 C         3.459779         0.950168        -1.660973
 C         2.508270         0.618160        -0.408794
 O         1.777560         1.498417         0.324165
 H         0.107318        -1.340422        -0.891200
 H         0.707996        -0.893438         0.660370
 H        -0.817504        -0.155912         0.213794
 H         0.017041         0.321767        -2.560197
 H        -0.368636         1.781746        -1.575080
 H         0.923947         2.335777        -3.879120
 H         3.399613         2.265589        -3.598926
 H         3.658235        -0.067532        -2.041605
 H         4.450087         1.333033        -1.357474
 H         2.829512        -0.370602         0.085704
