19
Iteration:   793
 C         0.130208        -0.507882        -0.033396
 C         1.084587         0.441483        -0.641623
 C         0.393184         1.458428        -1.561200
 C         1.234698         2.279915        -2.565902
 O         2.291350         3.172341        -2.055806
 C         2.647486         2.036352        -2.826140
 C         3.268220         0.962291        -1.967313
 C         2.557472         0.345640        -0.799130
 O         2.010133         1.144143         0.165292
 H        -0.889027         0.058410         0.213521
 H        -0.400447        -1.147320        -0.845510
 H         0.529017        -1.005982         0.818629
 H        -0.283912         0.894831        -2.121115
 H        -0.137068         2.109078        -0.865278
 H         0.630429         2.915847        -3.235644
 H         3.225579         2.274090        -3.647880
 H         3.319060         0.065655        -2.653258
 H         4.347805         1.140811        -1.747452
 H         3.096371        -0.418731        -0.315043
