19
Iteration:  1677charge 0 multiplicity 1
 C         0.196057        -0.587111        -0.048816
 C         1.042107         0.543994        -0.594182
 C         0.487673         1.186459        -1.825967
 C         1.379005         2.017544        -2.785824
 O         2.102810         3.253649        -2.341756
 C         2.816750         1.987361        -2.718366
 C         3.375694         1.089098        -1.689636
 C         2.482503         0.459000        -0.542996
 O         1.777876         1.389371         0.331202
 H         0.134731        -0.558476         0.955771
 H        -0.927531        -0.426266        -0.291841
 H         0.379498        -1.456856        -0.531851
 H         0.118441         0.402595        -2.434453
 H        -0.415093         1.881936        -1.583228
 H         0.779306         2.345213        -3.619029
 H         3.579727         2.111157        -3.555178
 H         3.657992         0.182118        -2.301610
 H         4.368426         1.451181        -1.324473
 H         2.913497        -0.417389        -0.058837
