19
Iteration:  4296charge 0 multiplicity 1
 C         0.167722        -0.498136         0.108402
 C         1.030908         0.499043        -0.655004
 C         0.461393         1.116518        -2.024659
 C         1.450251         2.092160        -2.812488
 O         2.069640         3.190583        -2.157131
 C         2.885523         2.117164        -2.637503
 C         3.369472         1.003786        -1.670939
 C         2.471269         0.443982        -0.597658
 O         1.740546         1.384435         0.166847
 H         0.296350        -1.531693        -0.164771
 H         0.473751        -0.517208         1.108912
 H        -0.982981        -0.270524         0.146075
 H         0.265960         0.282571        -2.688810
 H        -0.523132         1.684859        -1.791847
 H         0.919516         2.431216        -3.673812
 H         3.662647         2.335002        -3.412857
 H         3.708802         0.155797        -2.408833
 H         4.310452         1.441333        -1.196660
 H         2.900476        -0.348217         0.017786
