19
Iteration:  3458
 C         0.225235        -0.726654        -0.407357
 C         1.036203         0.573675        -0.634132
 C         0.330876         1.628123        -1.578993
 C         1.275668         1.909078        -2.771307
 O         2.241655         3.019229        -2.532430
 C         2.759326         1.720364        -2.760255
 C         3.457611         1.363691        -1.470104
 C         2.589702         0.587053        -0.542528
 O         1.688577         1.275772         0.440848
 H         0.134534        -1.203630        -1.330610
 H         0.784055        -1.499157         0.179938
 H        -0.644451        -0.500762         0.129425
 H        -0.643985         1.311286        -1.841104
 H         0.407808         2.615538        -0.906993
 H         0.827558         1.848313        -3.850399
 H         3.221188         1.474525        -3.739735
 H         4.382252         0.738195        -1.718245
 H         3.691993         2.295640        -0.933715
 H         2.894758        -0.318211         0.062993
