19
Iteration:  3293charge 0 multiplicity 1
 C         0.254779        -0.654338        -0.554945
 C         1.071119         0.573888        -0.684861
 C         0.663038         1.753398        -1.464773
 C         1.290232         1.851970        -2.871156
 O         2.051950         3.030489        -2.852571
 C         2.707644         1.733288        -2.736982
 C         3.328308         1.425063        -1.244129
 C         2.560472         0.505330        -0.392185
 O         1.688958         1.140748         0.576658
 H        -0.277529        -1.005772        -1.443082
 H         0.930323        -1.473019        -0.344352
 H        -0.479756        -0.544338         0.343871
 H        -0.347616         1.796734        -1.526050
 H         1.027510         2.654409        -0.941939
 H         0.778323         1.592023        -3.835894
 H         3.307501         1.347402        -3.544865
 H         4.333887         0.863947        -1.303646
 H         3.400885         2.406813        -0.791606
 H         2.992635        -0.499952        -0.204538
