19
Iteration:   346charge 0 multiplicity 1
 C         0.110149        -0.512540         0.023808
 C         1.048950         0.450986        -0.703214
 C         0.356582         1.467951        -1.655814
 C         1.258143         2.187059        -2.633931
 O         2.182575         3.233631        -2.036923
 C         2.715665         2.013214        -2.696722
 C         3.384031         0.923824        -1.945881
 C         2.614990         0.301204        -0.812435
 O         1.964263         1.223788         0.150592
 H         0.540382        -1.298352         0.481932
 H        -0.311814         0.104603         0.868638
 H        -0.763905        -0.692066        -0.527562
 H        -0.568565         1.093216        -2.093867
 H         0.034742         2.265187        -0.913657
 H         0.908680         2.442692        -3.707156
 H         3.112210         2.185484        -3.775334
 H         3.484903         0.094725        -2.672756
 H         4.418314         1.180291        -1.577799
 H         2.980225        -0.527342        -0.196517
