19
Iteration:  4689
 C         0.115467        -0.734212        -0.194852
 C         1.021437         0.531439        -0.681128
 C         0.569529         1.612039        -1.659057
 C         1.356594         1.899924        -2.902681
 O         2.103107         3.167016        -2.833436
 C         2.800891         1.934950        -2.606617
 C         3.457238         1.423962        -1.390072
 C         2.492125         0.470970        -0.526629
 O         1.699454         1.027138         0.522663
 H        -0.552478        -0.905163        -0.975315
 H         0.632264        -1.548239         0.227604
 H        -0.375533        -0.357460         0.762701
 H        -0.616915         1.630798        -1.762389
 H         0.609061         2.496447        -1.077686
 H         1.013890         1.899054        -3.909513
 H         3.541516         1.549916        -3.420782
 H         4.249654         0.859278        -1.766534
 H         3.994865         2.185313        -0.835890
 H         2.933680        -0.445294        -0.137927
