19
Iteration:  1399
 C         0.190831        -0.543105         0.056131
 C         0.971849         0.548593        -0.696709
 C         0.376373         1.452502        -1.755571
 C         1.303876         2.063352        -2.753600
 O         2.127627         3.141472        -2.251081
 C         2.841608         2.005153        -2.710167
 C         3.461620         1.075839        -1.694912
 C         2.434764         0.315172        -0.755695
 O         1.902771         1.273260         0.257738
 H         0.953513        -1.103035         0.661807
 H        -0.657502        -0.158992         0.569777
 H        -0.175716        -1.370306        -0.552746
 H        -0.434205         1.044564        -2.301756
 H        -0.175813         2.262361        -1.156532
 H         0.906159         2.340707        -3.793249
 H         3.211745         1.973470        -3.742205
 H         4.188957         0.377080        -2.228035
 H         4.008850         1.702883        -0.950491
 H         2.756300        -0.565202        -0.276447
