19
Iteration:  3654
 C         0.189327        -0.432468        -0.146486
 C         1.078150         0.548024        -0.757441
 C         0.353541         1.189144        -1.905893
 C         1.345473         1.992686        -2.684013
 O         2.105862         3.110949        -2.207520
 C         2.769520         1.847600        -2.626434
 C         3.480278         1.109385        -1.513435
 C         2.535699         0.523365        -0.585396
 O         1.789295         1.403816         0.160988
 H         0.069506        -1.351660        -0.704536
 H         0.590327        -0.626497         0.941332
 H        -0.800698         0.089194        -0.096752
 H        -0.367966         0.515665        -2.499938
 H        -0.428462         1.874009        -1.448491
 H         0.905409         2.162981        -3.686471
 H         3.413414         2.150272        -3.469015
 H         4.068545         0.327372        -2.011956
 H         4.184229         1.684533        -0.951966
 H         3.056270        -0.244682        -0.087227
