19
Iteration:  2991charge 0 multiplicity 1
 C         0.288539        -0.596668         0.031432
 C         0.998816         0.516770        -0.686316
 C         0.439423         1.242755        -1.901140
 C         1.364095         2.033518        -2.867910
 O         2.167663         3.226302        -2.267921
 C         2.798208         1.982859        -2.641365
 C         3.411680         1.003162        -1.617682
 C         2.477361         0.486435        -0.559871
 O         1.633071         1.454008         0.248581
 H        -0.025525        -1.427485        -0.675448
 H         1.007450        -1.196309         0.645113
 H        -0.494396        -0.223267         0.611378
 H         0.172131         0.427696        -2.569258
 H        -0.402409         1.745806        -1.719097
 H         1.068807         2.211470        -3.894398
 H         3.467263         2.180033        -3.436084
 H         3.812564         0.228850        -2.213902
 H         4.320698         1.457900        -1.131651
 H         2.951389        -0.153554         0.219754
