19
Iteration:  1819
 C         0.244716        -0.596069        -0.071820
 C         1.002827         0.647507        -0.723587
 C         0.404314         1.211123        -1.901215
 C         1.366516         1.976761        -2.781243
 O         2.090006         3.024980        -2.158757
 C         2.795551         1.857674        -2.666657
 C         3.470152         1.112112        -1.546023
 C         2.481636         0.577389        -0.580171
 O         1.738537         1.544233         0.185772
 H        -0.182730        -1.269864        -0.753013
 H         1.056943        -1.264840         0.408567
 H        -0.435232        -0.201800         0.594052
 H        -0.025719         0.404857        -2.454699
 H        -0.348949         1.896994        -1.601505
 H         0.984195         2.183377        -3.905630
 H         3.336893         2.095545        -3.682554
 H         4.049212         0.298196        -1.980655
 H         4.267252         1.735948        -1.134321
 H         2.882555        -0.265912        -0.057627
