19
Iteration:  2158
 C         0.285463        -0.727298        -0.102253
 C         0.998597         0.592332        -0.696113
 C         0.362542         1.385843        -1.850756
 C         1.289935         2.093386        -2.785753
 O         2.269314         3.128603        -2.317347
 C         2.791560         1.792630        -2.740274
 C         3.445804         1.117519        -1.543816
 C         2.499488         0.582775        -0.510805
 O         1.649854         1.390810         0.247322
 H         0.522417        -1.606908        -0.738517
 H         0.793820        -0.824957         1.022257
 H        -0.719450        -0.671326         0.334468
 H        -0.399372         0.753388        -2.350068
 H        -0.196099         2.186918        -1.410298
 H         0.851459         2.308915        -3.777732
 H         3.312051         1.717410        -3.666937
 H         4.120804         0.314090        -1.910806
 H         4.084191         1.906087        -1.089876
 H         2.876201        -0.284628         0.072558
