19
Iteration:  2011charge 0 multiplicity 1
 C         0.207442        -0.477054        -0.120885
 C         1.096116         0.593299        -0.702793
 C         0.440034         1.102671        -1.992473
 C         1.337028         2.048721        -2.850248
 O         2.015893         3.070189        -2.200544
 C         2.796910         1.958700        -2.598286
 C         3.491794         0.958967        -1.662553
 C         2.500289         0.618005        -0.440679
 O         1.776384         1.503279         0.306194
 H         0.066459        -1.257980        -0.947382
 H         0.692315        -0.886052         0.751672
 H        -0.801600        -0.154227         0.246060
 H         0.009565         0.359514        -2.535904
 H        -0.390892         1.776050        -1.602652
 H         0.962499         2.328222        -3.805017
 H         3.394260         2.258115        -3.505651
 H         3.669961        -0.059584        -2.045971
 H         4.487653         1.335522        -1.337825
 H         2.831760        -0.354956         0.125336
