19
Iteration:  3486
 C         0.211159        -0.611759        -0.253873
 C         1.036077         0.536334        -0.674822
 C         0.402001         1.497052        -1.666742
 C         1.322495         1.981172        -2.770309
 O         2.160713         3.173338        -2.630939
 C         2.783600         1.882564        -2.688721
 C         3.481432         1.230976        -1.462314
 C         2.547630         0.501421        -0.534155
 O         1.707907         1.210748         0.435878
 H         0.136048        -1.418936        -1.077614
 H         0.762276        -1.141656         0.515094
 H        -0.781458        -0.318740         0.282531
 H        -0.502960         0.899151        -2.118983
 H        -0.098589         2.224387        -1.137266
 H         0.946122         1.839443        -3.763437
 H         3.249815         1.696738        -3.664843
 H         4.191606         0.508525        -1.825188
 H         4.013782         1.948387        -0.799539
 H         2.809018        -0.441932        -0.071948
