19
Iteration:  1979charge 0 multiplicity 1
 C         0.280933        -0.625606        -0.038563
 C         0.979633         0.574775        -0.571366
 C         0.471952         1.239346        -1.857584
 C         1.357198         2.088217        -2.832682
 O         2.184636         3.166633        -2.402965
 C         2.832371         1.940644        -2.679974
 C         3.390717         1.038029        -1.628379
 C         2.477085         0.586993        -0.550021
 O         1.630962         1.407749         0.334069
 H         0.581624        -1.508840        -0.650325
 H         0.672332        -0.963014         0.928132
 H        -0.825515        -0.497225        -0.074996
 H         0.068200         0.424894        -2.424888
 H        -0.360505         1.837310        -1.425575
 H         0.981742         2.234092        -3.786115
 H         3.420501         2.037237        -3.565015
 H         3.734633         0.102070        -2.112510
 H         4.322225         1.529047        -1.235540
 H         2.906560        -0.331226        -0.034475
