19
Iteration:  3395charge 0 multiplicity 1
 C         0.103094        -0.662650        -0.333095
 C         1.033903         0.561218        -0.643159
 C         0.501285         1.638770        -1.500811
 C         1.309687         1.801784        -2.741284
 O         2.142058         3.112618        -2.860074
 C         2.825537         1.862975        -2.706675
 C         3.464955         1.497802        -1.360408
 C         2.542449         0.508365        -0.596955
 O         1.702843         1.028115         0.528910
 H        -0.042754        -1.410258        -1.195543
 H         0.376192        -1.257751         0.649053
 H        -0.908428        -0.276408        -0.125388
 H        -0.544235         1.636191        -1.674471
 H         0.632544         2.657601        -1.010504
 H         0.951702         1.490292        -3.743593
 H         3.388864         1.639896        -3.629865
 H         4.393406         0.908558        -1.560242
 H         3.874115         2.383156        -0.818601
 H         3.022278        -0.383156        -0.400093
