19
Iteration:  2549charge 0 multiplicity 1
 C         0.147069        -0.436763        -0.113187
 C         1.050307         0.578279        -0.671457
 C         0.368652         1.279565        -1.858777
 C         1.284975         1.976290        -2.797640
 O         2.019660         3.041849        -2.227942
 C         2.825244         1.880091        -2.646128
 C         3.577154         1.191869        -1.533208
 C         2.529028         0.440416        -0.642278
 O         1.868559         1.367968         0.222159
 H         0.412600        -1.420850        -0.381707
 H         0.061635        -0.451913         1.066105
 H        -0.855137        -0.120233        -0.376509
 H        -0.193526         0.498553        -2.457265
 H        -0.396002         1.990088        -1.577210
 H         0.864089         2.311669        -3.714290
 H         3.348095         1.879405        -3.640720
 H         4.202847         0.494916        -2.051613
 H         4.089198         1.904139        -0.845529
 H         2.904158        -0.411790        -0.163840
