19
Iteration:  2558charge 0 multiplicity 1
 C         0.097505        -0.413658        -0.072144
 C         1.081024         0.604416        -0.727736
 C         0.356491         1.292056        -1.857469
 C         1.337234         1.956455        -2.811435
 O         2.020207         3.005591        -2.233708
 C         2.775200         1.945955        -2.556690
 C         3.492432         1.167841        -1.550697
 C         2.620553         0.447606        -0.640377
 O         1.854642         1.339586         0.190268
 H         0.325733        -1.352961        -0.372651
 H         0.256882        -0.220212         1.014614
 H        -0.910165        -0.261236        -0.406713
 H        -0.175505         0.393132        -2.389839
 H        -0.411230         1.875905        -1.437518
 H         0.945649         2.130053        -3.833391
 H         3.500079         2.222635        -3.349519
 H         4.124640         0.469373        -2.088317
 H         4.250129         1.759596        -1.093898
 H         3.006030        -0.399688        -0.137274
