19
Iteration:  4525charge 0 multiplicity 1
 C         0.052560        -0.712709        -0.272622
 C         1.021303         0.555611        -0.607196
 C         0.439671         1.578705        -1.634504
 C         1.343680         1.954481        -2.833916
 O         2.191376         3.134674        -2.722539
 C         2.783343         1.780294        -2.677462
 C         3.431139         1.454428        -1.405067
 C         2.521660         0.530434        -0.587417
 O         1.866535         1.088761         0.506268
 H         0.529640        -1.644643        -0.630587
 H        -0.098504        -0.945564         0.732152
 H        -1.127033        -0.869780        -0.619280
 H        -0.604301         1.415350        -1.978713
 H         0.199657         2.430076        -0.999920
 H         0.769606         1.851603        -3.749208
 H         3.415788         1.696596        -3.648768
 H         4.380917         0.922247        -1.443437
 H         3.547402         2.470455        -0.918677
 H         2.984210        -0.452370        -0.458368
