19
Iteration:  1143
 C         0.247732        -0.560974         0.044868
 C         1.006126         0.522721        -0.734388
 C         0.301036         1.461740        -1.705761
 C         1.310032         2.280724        -2.509791
 O         2.311450         3.179436        -2.068135
 C         2.667683         1.924800        -2.826298
 C         3.329467         0.934475        -1.875378
 C         2.502515         0.344667        -0.766562
 O         1.893482         1.263330         0.158832
 H         0.824736        -1.495776         0.192812
 H        -0.025798        -0.208610         1.061049
 H        -0.697259        -0.939777        -0.543448
 H        -0.242345         0.969087        -2.451606
 H        -0.306885         2.103678        -1.042274
 H         0.815517         2.591200        -3.489334
 H         3.122433         2.144252        -3.877251
 H         3.786357         0.104867        -2.504686
 H         4.185799         1.459943        -1.421435
 H         2.927101        -0.558872        -0.279552
