19
Iteration:  2238charge 0 multiplicity 1
 C         0.057904        -0.383534        -0.130637
 C         1.111040         0.548102        -0.650278
 C         0.474492         1.321290        -1.809190
 C         1.275518         1.845062        -2.892146
 O         2.018278         3.010945        -2.249833
 C         2.827432         1.938860        -2.631963
 C         3.560242         1.268318        -1.506342
 C         2.586904         0.429070        -0.574800
 O         1.811784         1.325605         0.226423
 H        -0.326313        -0.849086        -1.164655
 H         0.390140        -1.206172         0.408608
 H        -0.894416         0.196219         0.163403
 H        -0.281493         0.604794        -2.317228
 H        -0.189763         2.062735        -1.530456
 H         0.708708         2.103010        -3.886535
 H         3.501820         2.160294        -3.519353
 H         4.260688         0.509356        -1.882325
 H         4.088980         1.984789        -0.883421
 H         2.778854        -0.413176        -0.052990
