19
Iteration:  2110
 C         0.108368        -0.560510        -0.141608
 C         1.053012         0.567269        -0.587728
 C         0.436811         1.244472        -1.913740
 C         1.352017         1.958396        -2.862434
 O         2.026024         3.088925        -2.243788
 C         2.825647         1.983180        -2.606312
 C         3.481497         1.080327        -1.661879
 C         2.528230         0.508058        -0.459391
 O         1.832578         1.484534         0.273046
 H        -0.033706        -1.078376        -1.066211
 H         0.400408        -1.191763         0.657054
 H        -0.834760        -0.174751         0.231131
 H         0.118944         0.433617        -2.496314
 H        -0.497422         1.842275        -1.692372
 H         1.016902         2.037938        -3.883564
 H         3.440396         2.240553        -3.523774
 H         3.844140         0.245465        -2.290048
 H         4.363643         1.538967        -1.177186
 H         3.051970        -0.285607         0.189969
