19
Iteration:  1171
 C         0.244189        -0.509604         0.213326
 C         0.990222         0.505174        -0.722274
 C         0.336816         1.452156        -1.805920
 C         1.285486         2.275957        -2.688195
 O         2.199855         3.169687        -2.016373
 C         2.745142         2.070949        -2.635673
 C         3.368397         0.911352        -1.883325
 C         2.493922         0.270347        -0.860904
 O         1.912443         1.233121         0.094720
 H         0.631278        -1.551289         0.046991
 H         0.291402        -0.108723         1.265834
 H        -0.762196        -0.633026        -0.045867
 H        -0.369950         0.829432        -2.515042
 H        -0.096256         2.132919        -1.069937
 H         0.915564         2.538313        -3.642171
 H         3.334547         2.306558        -3.493653
 H         3.430344         0.179131        -2.722034
 H         4.431648         0.937248        -1.550543
 H         2.867065        -0.638726        -0.318197
