19
Iteration:  1876charge 0 multiplicity 1
 C         0.172914        -0.545146        -0.047733
 C         1.098912         0.496874        -0.662112
 C         0.479589         1.308654        -1.824060
 C         1.407241         2.010495        -2.804722
 O         2.035543         3.230821        -2.592834
 C         2.859372         1.973906        -2.679269
 C         3.392848         1.131079        -1.519940
 C         2.532578         0.462237        -0.489528
 O         1.706808         1.278174         0.392184
 H        -0.465707        -0.891206        -0.855679
 H         0.611046        -1.381514         0.422812
 H        -0.558398        -0.266269         0.700218
 H        -0.079027         0.587114        -2.298205
 H        -0.306559         1.979104        -1.456678
 H         0.989767         1.948666        -3.912213
 H         3.558679         2.194540        -3.606579
 H         4.013853         0.314361        -1.933437
 H         4.004619         1.846198        -0.946691
 H         3.066321        -0.377505         0.033077
