19
Iteration:  2942
 C         0.164053        -0.398306        -0.021720
 C         1.096589         0.579280        -0.738865
 C         0.535841         1.035116        -2.042295
 C         1.292178         2.076057        -2.732209
 O         2.015403         2.997597        -1.949964
 C         2.728666         1.938692        -2.572342
 C         3.458367         1.017075        -1.670279
 C         2.640153         0.523072        -0.540966
 O         1.738704         1.536750         0.018662
 H        -0.096497        -1.221765        -0.639372
 H         0.555098        -0.876494         0.896707
 H        -0.768738         0.222906         0.229792
 H         0.268713         0.188636        -2.682162
 H        -0.443725         1.622668        -1.675164
 H         1.071099         2.618352        -3.747862
 H         3.241833         2.297667        -3.560138
 H         3.922127         0.134505        -2.324697
 H         4.305698         1.568377        -1.355162
 H         2.921335        -0.204077         0.200524
