19
Iteration:   603charge 0 multiplicity 1
 C         0.130274        -0.486641        -0.055444
 C         1.090084         0.470923        -0.676248
 C         0.391979         1.362202        -1.665620
 C         1.251305         2.342056        -2.542015
 O         2.310073         3.164684        -2.006142
 C         2.591849         1.956837        -2.725426
 C         3.325817         0.856374        -1.990571
 C         2.581106         0.357075        -0.792254
 O         1.982026         1.309599         0.184207
 H        -0.723026         0.096610         0.428373
 H        -0.443963        -0.997892        -0.821597
 H         0.652646        -1.292444         0.667312
 H        -0.366006         0.786479        -2.403219
 H        -0.375051         1.959383        -0.996258
 H         0.636753         2.887100        -3.247061
 H         2.926565         2.221251        -3.712983
 H         3.337949        -0.014045        -2.782120
 H         4.372950         1.103146        -1.771649
 H         3.013137        -0.492111        -0.218364
