19
Iteration:  3923charge 0 multiplicity 1
 C         0.178516        -0.440231         0.048831
 C         1.064428         0.456917        -0.714918
 C         0.619877         1.103454        -2.001180
 C         1.338934         2.136554        -2.772766
 O         2.114250         3.123795        -2.073079
 C         2.803596         1.953588        -2.714698
 C         3.427659         1.023047        -1.765063
 C         2.551347         0.535675        -0.539887
 O         1.568090         1.465677         0.223538
 H        -0.268699        -1.098111        -0.596768
 H         0.636863        -0.985871         0.931779
 H        -0.610833         0.190781         0.485325
 H         0.485250         0.139023        -2.780267
 H        -0.361250         1.354212        -1.766319
 H         0.888895         2.417479        -3.718594
 H         3.463100         2.371772        -3.500056
 H         3.479021         0.014145        -2.182857
 H         4.460157         1.177436        -1.410727
 H         3.127257        -0.081481         0.263357
