19
Iteration:  4626
 C         0.308075        -0.636546        -0.460849
 C         1.077095         0.614468        -0.705683
 C         0.345234         1.674653        -1.570201
 C         1.274443         1.981875        -2.839899
 O         2.216447         3.009196        -2.714580
 C         2.714952         1.670960        -2.639975
 C         3.389748         1.409394        -1.363585
 C         2.563957         0.522334        -0.461706
 O         1.733630         1.112277         0.522213
 H        -0.338698        -1.061517        -1.216868
 H         0.881835        -1.578033        -0.204977
 H        -0.453161        -0.470393         0.487285
 H        -0.626208         1.389955        -1.784726
 H         0.263643         2.695687        -0.981515
 H         0.770986         2.000165        -3.761381
 H         3.188146         1.391608        -3.587800
 H         4.396129         0.962679        -1.702997
 H         3.560578         2.416490        -0.862218
 H         3.110782        -0.396886        -0.196467
