19
Iteration:   286
 C         0.126585        -0.337756         0.080581
 C         1.049476         0.663234        -0.596080
 C         0.418221         1.344139        -1.776446
 C         1.228614         2.279276        -2.680196
 O         2.122314         3.175968        -1.959382
 C         2.688777         2.090205        -2.716186
 C         3.369231         0.874711        -1.943992
 C         2.435655         0.235062        -0.851405
 O         2.125788         1.099857         0.168770
 H         0.785204        -1.097325         0.710650
 H        -0.497168         0.188035         0.756485
 H        -0.472643        -0.933177        -0.626019
 H         0.247538         0.474452        -2.415309
 H        -0.568646         1.679551        -1.573662
 H         0.712473         2.704951        -3.512424
 H         3.317032         2.371900        -3.547928
 H         3.649722         0.124516        -2.712756
 H         4.320806         1.178977        -1.445083
 H         2.782440        -0.740408        -0.557986
