19
Iteration:  2386charge 0 multiplicity 1
 C         0.072127        -0.538882         0.058277
 C         0.961057         0.519820        -0.618919
 C         0.520630         1.209293        -1.882013
 C         1.382602         2.016500        -2.862476
 O         2.070814         3.230905        -2.390426
 C         2.865979         2.033542        -2.649417
 C         3.521000         1.129585        -1.590852
 C         2.508771         0.436080        -0.624230
 O         1.725786         1.292472         0.259773
 H         0.002169        -1.421124        -0.481274
 H         0.725230        -0.750009         1.020216
 H        -0.722351        -0.003432         0.537194
 H        -0.005049         0.484818        -2.412856
 H        -0.329155         1.974128        -1.673758
 H         0.968805         2.014318        -3.817071
 H         3.457860         2.324155        -3.526712
 H         4.091460         0.374434        -2.151030
 H         4.225179         1.519498        -0.791213
 H         2.885447        -0.408380         0.027305
