19
Iteration:   592
 C         0.168670        -0.553131        -0.102311
 C         1.085131         0.581280        -0.661494
 C         0.358603         1.400940        -1.688033
 C         1.209199         2.269267        -2.465862
 O         2.358134         3.130962        -1.971480
 C         2.656921         2.000198        -2.745926
 C         3.239044         0.857304        -2.040654
 C         2.527619         0.424984        -0.749650
 O         1.994078         1.307774         0.189327
 H        -0.648186        -0.012078         0.462631
 H        -0.174374        -1.252556        -0.844146
 H         0.666528        -1.127188         0.804693
 H        -0.044234         0.597088        -2.462290
 H        -0.501475         2.057583        -1.207427
 H         0.781608         2.683871        -3.367090
 H         3.033648         2.051818        -3.759578
 H         3.047876        -0.087816        -2.695387
 H         4.330730         0.979695        -1.986230
 H         2.982539        -0.522624        -0.358513
