19
Iteration:   841
 C         0.205198        -0.293200         0.162047
 C         1.061201         0.582087        -0.733935
 C         0.349314         1.398803        -1.816858
 C         1.239358         2.250525        -2.668007
 O         2.079153         3.107503        -1.883396
 C         2.695157         2.097471        -2.603117
 C         3.302099         0.920290        -1.873860
 C         2.453086         0.204608        -0.978257
 O         2.173789         1.111536         0.089363
 H        -0.125878         0.255234         0.992022
 H        -0.683575        -0.590750        -0.276814
 H         0.895847        -1.153856         0.586902
 H        -0.132962         0.601516        -2.549753
 H        -0.454122         1.900311        -1.318187
 H         0.877157         2.755692        -3.621701
 H         3.314933         2.369984        -3.584395
 H         3.712774         0.250469        -2.635312
 H         4.226333         1.240553        -1.294830
 H         2.702239        -0.915837        -0.830883
