19
Iteration:  1759charge 0 multiplicity 1
 C         0.116405        -0.463030         0.095080
 C         1.049981         0.558875        -0.619403
 C         0.478659         1.027989        -1.986903
 C         1.349823         2.041261        -2.810041
 O         2.056465         3.136290        -2.168051
 C         2.850790         2.067948        -2.675880
 C         3.465090         1.079137        -1.685808
 C         2.549113         0.480845        -0.592691
 O         1.774323         1.445512         0.201171
 H         0.366063        -1.517737        -0.246368
 H        -0.126217        -0.185364         1.057703
 H        -0.937866        -0.525256        -0.426915
 H         0.182369         0.161622        -2.743705
 H        -0.525962         1.454294        -1.711590
 H         0.963780         2.278269        -3.741121
 H         3.366388         2.266349        -3.511759
 H         3.752128         0.179085        -2.249105
 H         4.342934         1.456661        -1.150386
 H         3.043290        -0.233021         0.117716
