19
Iteration:  3012
 C         0.174486        -0.591555        -0.077524
 C         1.050098         0.480340        -0.712604
 C         0.417658         1.264354        -1.872892
 C         1.318143         2.091315        -2.766071
 O         2.101906         3.210651        -2.467414
 C         2.831605         1.927318        -2.638318
 C         3.427294         1.129860        -1.476804
 C         2.567624         0.474280        -0.460460
 O         1.751101         1.369550         0.253687
 H         0.011175        -1.442375        -0.834225
 H         0.713074        -1.143427         0.706371
 H        -0.721209        -0.227142         0.301069
 H        -0.211939         0.707884        -2.515623
 H        -0.176896         1.964350        -1.350069
 H         0.784207         2.267728        -3.741754
 H         3.443396         1.844713        -3.519892
 H         3.972804         0.322756        -1.987009
 H         4.190015         1.720306        -0.970586
 H         2.938902        -0.450568        -0.004463
