19
Iteration:  2530
 C         0.142621        -0.594321        -0.085682
 C         1.032596         0.579394        -0.658456
 C         0.413023         1.285671        -1.834966
 C         1.375735         2.045929        -2.773666
 O         2.159470         3.136652        -2.316952
 C         2.764827         1.868137        -2.805338
 C         3.427008         1.118983        -1.586693
 C         2.517825         0.486206        -0.569718
 O         1.786495         1.387234         0.328734
 H         0.560864        -1.520849        -0.684649
 H         0.453040        -0.706742         1.032746
 H        -0.963415        -0.368859        -0.064714
 H        -0.113561         0.548685        -2.361087
 H        -0.460035         1.925986        -1.411724
 H         0.881341         2.206846        -3.748782
 H         3.428700         2.071450        -3.657466
 H         4.341098         0.478129        -1.762641
 H         3.771231         2.112320        -1.085531
 H         2.918485        -0.456692        -0.059792
