19
Iteration:  1066
 C         0.159082        -0.598194        -0.056663
 C         1.011810         0.497571        -0.667087
 C         0.364503         1.670621        -1.512550
 C         1.293825         2.193548        -2.632812
 O         2.097302         3.282098        -2.343684
 C         2.781458         2.010230        -2.768955
 C         3.415401         0.966935        -1.818226
 C         2.469937         0.250121        -0.784450
 O         2.005515         1.054682         0.318696
 H         0.234911        -0.479904         1.081076
 H        -0.952865        -0.584965        -0.265403
 H         0.543791        -1.572872        -0.363572
 H        -0.587936         1.597484        -1.910488
 H         0.229619         2.515161        -0.810437
 H         0.784307         2.379510        -3.607390
 H         3.167374         2.006662        -3.838166
 H         3.745943         0.259704        -2.572211
 H         4.280486         1.397484        -1.354127
 H         2.998861        -0.651134        -0.458361
