19
Iteration:  2648
 C         0.243983        -0.554891        -0.029171
 C         1.085846         0.566471        -0.730797
 C         0.437005         1.226626        -1.974615
 C         1.344252         2.061403        -2.781576
 O         2.127510         2.980974        -2.005519
 C         2.726562         1.864259        -2.696374
 C         3.488691         1.063833        -1.695494
 C         2.536866         0.608940        -0.475485
 O         1.662537         1.511071         0.071839
 H        -0.387055        -1.097755        -0.687906
 H         0.794381        -1.262212         0.682764
 H        -0.432845        -0.000305         0.630673
 H        -0.102756         0.327985        -2.620850
 H        -0.461374         1.764762        -1.624266
 H         0.809922         2.485634        -3.635716
 H         3.427924         2.049932        -3.611300
 H         4.003376         0.171616        -2.031510
 H         4.314883         1.679608        -1.251383
 H         3.067296         0.120633         0.302304
