19
Iteration:   422
 C         0.157431        -0.642589        -0.090693
 C         1.065558         0.493811        -0.665323
 C         0.386011         1.619404        -1.433444
 C         1.244115         2.217722        -2.531046
 O         2.291121         3.206463        -2.186984
 C         2.627828         1.870263        -2.851340
 C         3.388171         0.988571        -1.905942
 C         2.532685         0.364871        -0.788753
 O         1.909252         1.196913         0.181667
 H         0.118617        -0.596031         1.018139
 H        -0.915049        -0.548963        -0.526076
 H         0.442294        -1.584417        -0.482161
 H        -0.519386         1.373891        -1.868288
 H         0.111397         2.371449        -0.682798
 H         0.583529         2.692963        -3.361746
 H         3.054436         1.971401        -3.942780
 H         3.859464         0.172803        -2.486257
 H         4.335790         1.458461        -1.464501
 H         2.947549        -0.562778        -0.307432
