19
Iteration:  2533
 C         0.138234        -0.577912        -0.067638
 C         1.035053         0.592767        -0.676409
 C         0.405983         1.275331        -1.847126
 C         1.373996         2.030746        -2.765316
 O         2.138602         3.144710        -2.285495
 C         2.752540         1.864746        -2.824982
 C         3.470748         1.115235        -1.566293
 C         2.513455         0.476548        -0.588823
 O         1.808461         1.397868         0.326555
 H         0.494734        -1.475492        -0.663151
 H         0.365515        -0.665800         0.912247
 H        -0.957091        -0.397110        -0.182202
 H        -0.169603         0.509493        -2.400845
 H        -0.404978         1.920971        -1.399849
 H         0.859005         2.106856        -3.793059
 H         3.334514         2.109251        -3.696285
 H         4.419872         0.506804        -1.634605
 H         3.789595         2.025525        -1.075867
 H         2.873633        -0.497529        -0.071768
