19
Iteration:   833charge 0 multiplicity 1
 C         0.202822        -0.294977         0.163961
 C         1.063701         0.604905        -0.720252
 C         0.290770         1.396659        -1.778626
 C         1.194290         2.304600        -2.619194
 O         2.124893         3.108660        -1.897695
 C         2.683110         2.068215        -2.692302
 C         3.395741         0.929358        -1.849500
 C         2.506270         0.183460        -0.963350
 O         2.125526         1.079440         0.072825
 H        -0.273792         0.354315         0.927575
 H        -0.679560        -0.691342        -0.417304
 H         0.754371        -1.126315         0.526769
 H        -0.032575         0.513648        -2.562923
 H        -0.621506         2.013646        -1.418369
 H         0.696275         2.638307        -3.501513
 H         3.331019         2.477868        -3.563134
 H         3.723105         0.168600        -2.574586
 H         4.228706         1.347705        -1.319694
 H         2.873885        -0.869008        -0.768528
