19
Iteration:  2972charge 0 multiplicity 1
 C         0.285022        -0.552223         0.040419
 C         0.993685         0.602491        -0.709484
 C         0.410148         1.102878        -2.011041
 C         1.424492         2.052568        -2.739257
 O         2.092961         3.021967        -2.065686
 C         2.900449         2.000094        -2.736001
 C         3.440712         1.045124        -1.667314
 C         2.432661         0.647574        -0.584560
 O         1.658607         1.484083         0.199984
 H        -0.109952        -1.302289        -0.631434
 H         0.997950        -1.158091         0.773094
 H        -0.527884        -0.069946         0.628959
 H         0.013166         0.241505        -2.686967
 H        -0.528714         1.751964        -1.861859
 H         1.101835         2.437214        -3.650377
 H         3.378130         2.312894        -3.637088
 H         3.624760         0.074897        -2.146650
 H         4.556023         1.277048        -1.372047
 H         2.853660        -0.284776        -0.059146
