19
Iteration:  4400
 C         0.217271        -0.598393         0.067540
 C         1.008963         0.501401        -0.717880
 C         0.458175         1.243943        -1.926666
 C         1.410956         2.048085        -2.775386
 O         2.131462         3.257030        -2.348630
 C         2.880923         1.982680        -2.681268
 C         3.398769         1.109933        -1.546789
 C         2.476420         0.442950        -0.608510
 O         1.663053         1.355338         0.253665
 H        -0.530838        -1.278942        -0.463207
 H         0.928892        -1.334877         0.655571
 H        -0.395196        -0.149503         0.801093
 H        -0.081592         0.512972        -2.648833
 H        -0.158432         1.999685        -1.697670
 H         0.920543         2.172248        -3.769288
 H         3.555750         2.241943        -3.458421
 H         3.913830         0.312281        -2.056616
 H         4.141040         1.547391        -0.956019
 H         2.808596        -0.429621        -0.011960
