19
Iteration:  1224
 C         0.065794        -0.260531        -0.035771
 C         1.134347         0.576978        -0.663142
 C         0.400671         1.324440        -1.853596
 C         1.205604         2.199469        -2.651147
 O         2.132376         3.117169        -1.893918
 C         2.597313         1.988296        -2.740760
 C         3.335452         0.907558        -1.959375
 C         2.637354         0.295403        -0.728703
 O         2.106851         1.172459         0.213396
 H        -0.174187        -1.122877        -0.703240
 H         0.386380        -0.539209         1.021299
 H        -0.918472         0.447943         0.187015
 H         0.029883         0.434403        -2.496974
 H        -0.602537         1.786791        -1.554381
 H         0.635452         2.772191        -3.446294
 H         3.132156         2.255527        -3.573179
 H         3.822017         0.183457        -2.570068
 H         4.198772         1.376901        -1.536154
 H         3.193486        -0.465493        -0.226799
