19
Iteration:   953charge 0 multiplicity 1
 C         0.297225        -0.591348        -0.079200
 C         1.056531         0.554916        -0.652007
 C         0.361259         1.624345        -1.514371
 C         1.215593         2.301598        -2.603692
 O         2.268713         3.184612        -2.139117
 C         2.670264         1.988992        -2.749782
 C         3.277789         0.867626        -1.954223
 C         2.466252         0.246667        -0.795810
 O         1.935605         1.177312         0.212392
 H        -0.807965        -0.504092        -0.107536
 H         0.494940        -1.508955        -0.691944
 H         0.772896        -0.766875         0.868240
 H        -0.539989         1.410336        -1.969595
 H         0.256607         2.373735        -0.768320
 H         0.603439         2.701321        -3.401345
 H         3.289941         2.282092        -3.714943
 H         3.398638         0.038238        -2.686680
 H         4.286763         1.123359        -1.579513
 H         2.878618        -0.704549        -0.316209
