19
Iteration:  3169
 C         0.095898        -0.637947        -0.431885
 C         1.030568         0.615038        -0.597216
 C         0.416201         1.625479        -1.553543
 C         1.285631         1.818312        -2.765436
 O         2.126330         3.073627        -2.909373
 C         2.760366         1.886823        -2.617293
 C         3.503783         1.461260        -1.287977
 C         2.589642         0.553075        -0.527884
 O         1.823628         1.039518         0.523113
 H        -0.133873        -1.025359        -1.425196
 H         0.581931        -1.419902         0.209964
 H        -0.942546        -0.439242         0.011139
 H        -0.620594         1.242318        -1.723564
 H         0.341879         2.500854        -1.023882
 H         0.811390         1.536789        -3.702623
 H         3.501792         1.418676        -3.354810
 H         4.340029         0.820103        -1.615824
 H         3.846578         2.433271        -0.750179
 H         2.927043        -0.597238        -0.465044
