19
Iteration:  4563
 C         0.153477        -0.569414        -0.394399
 C         1.073983         0.562398        -0.640821
 C         0.504188         1.643674        -1.551567
 C         1.316466         1.884063        -2.841524
 O         2.014840         3.152182        -2.799182
 C         2.770894         1.798406        -2.654571
 C         3.447528         1.380947        -1.353064
 C         2.579513         0.445568        -0.516762
 O         1.757202         1.034138         0.530408
 H         0.525868        -1.480208        -0.885619
 H         0.402075        -0.589739         0.705052
 H        -0.786240        -0.337512        -0.637545
 H        -0.457204         1.281403        -1.849659
 H         0.539212         2.693457        -1.074615
 H         0.919120         1.757798        -3.864308
 H         3.398376         1.516701        -3.429619
 H         4.454492         0.946619        -1.644599
 H         3.677638         2.220409        -0.667525
 H         2.850649        -0.598242        -0.313181
