19
Iteration:  4931charge 0 multiplicity 1
 C         0.157651        -0.382285        -0.004078
 C         1.103232         0.602264        -0.706011
 C         0.501572         1.039039        -2.072075
 C         1.322579         2.122531        -2.805718
 O         2.028971         3.055170        -2.009211
 C         2.805573         1.951822        -2.611274
 C         3.422932         1.015132        -1.653050
 C         2.502660         0.475361        -0.607394
 O         1.790190         1.458534         0.182568
 H         0.102802        -1.303070        -0.539655
 H         0.717264        -0.518008         0.965019
 H        -0.906255         0.065449         0.118628
 H         0.368463         0.237342        -2.757593
 H        -0.562051         1.397022        -1.845573
 H         0.782439         2.607959        -3.742323
 H         3.520944         2.247149        -3.444720
 H         3.858479         0.126407        -2.189427
 H         4.240406         1.535880        -1.081512
 H         3.009275        -0.347774        -0.122419
