19
Iteration:  4875charge 0 multiplicity 1
 C         0.073070        -0.354278         0.067292
 C         1.050523         0.426663        -0.679175
 C         0.498318         1.083995        -1.976420
 C         1.454063         1.974813        -2.792225
 O         1.981545         3.129712        -2.050893
 C         2.870261         2.137485        -2.593833
 C         3.465986         1.068995        -1.703230
 C         2.547770         0.414730        -0.657010
 O         1.746201         1.414468         0.097725
 H        -0.453078        -1.132340        -0.457547
 H         0.381392        -0.773550         1.022316
 H        -0.712729         0.252031         0.574142
 H         0.358561         0.289450        -2.648821
 H        -0.395706         1.544502        -1.708282
 H         0.980852         2.261116        -3.831297
 H         3.497382         2.518929        -3.470844
 H         3.929523         0.381292        -2.428574
 H         4.359602         1.444638        -1.155425
 H         2.923575        -0.369924        -0.016337
