19
Iteration:   177charge 0 multiplicity 1
 C         0.113762        -0.549862        -0.075680
 C         1.071938         0.517642        -0.696317
 C         0.413546         1.562862        -1.586851
 C         1.272540         2.227334        -2.612364
 O         2.233520         3.326949        -2.204934
 C         2.664512         1.936650        -2.811236
 C         3.319783         0.919119        -1.882878
 C         2.569610         0.320341        -0.718626
 O         1.971601         1.087975         0.304669
 H         0.747619        -1.165357         0.672140
 H        -0.673410        -0.110265         0.463573
 H        -0.243355        -1.197381        -0.742099
 H        -0.380930         1.119956        -2.118132
 H        -0.056046         2.299646        -0.925925
 H         0.621403         2.512846        -3.481845
 H         2.926477         2.058583        -3.874682
 H         3.627673         0.029853        -2.443806
 H         4.243678         1.431945        -1.487469
 H         2.845493        -0.676916        -0.434135
