19
Iteration:  4514
 C         0.137356        -0.738331        -0.185051
 C         0.976853         0.538263        -0.630947
 C         0.446669         1.581460        -1.629891
 C         1.316977         2.031911        -2.798699
 O         2.212525         3.167290        -2.776589
 C         2.794887         1.847016        -2.758875
 C         3.429060         1.384628        -1.390289
 C         2.510012         0.486727        -0.573922
 O         1.754808         1.064488         0.537296
 H         0.706284        -1.521600        -0.679793
 H         0.102179        -0.824148         0.852946
 H        -0.875607        -0.608335        -0.823638
 H        -0.516692         1.164512        -1.993658
 H         0.370204         2.489525        -1.038519
 H         0.957422         1.868747        -3.809506
 H         3.381998         1.543086        -3.720274
 H         4.364562         0.894195        -1.660888
 H         3.744980         2.300499        -0.806365
 H         2.979890        -0.450908        -0.271543
