19
Iteration:  4767
 C         0.244964        -0.634234        -0.339845
 C         1.112821         0.613483        -0.636268
 C         0.459348         1.544038        -1.634194
 C         1.307566         2.003020        -2.802704
 O         2.138221         3.154319        -2.632439
 C         2.756686         1.806667        -2.755418
 C         3.419187         1.211200        -1.470930
 C         2.534244         0.482931        -0.496962
 O         1.671762         1.200091         0.530647
 H         0.551421        -1.476549        -0.905316
 H         0.550273        -0.941537         0.697289
 H        -0.892412        -0.431453        -0.484333
 H        -0.547626         1.063442        -2.118168
 H        -0.009147         2.351726        -1.034186
 H         0.954103         1.924139        -3.814844
 H         3.395226         1.630262        -3.691092
 H         4.087937         0.474251        -1.840237
 H         3.976409         1.951288        -0.894455
 H         2.989413        -0.390506        -0.038921
