19
Iteration:  4222charge 0 multiplicity 1
 C         0.233101        -0.594092        -0.337877
 C         1.098583         0.563549        -0.634213
 C         0.393809         1.419454        -1.749177
 C         1.372435         1.942714        -2.829194
 O         2.087206         3.084057        -2.425506
 C         2.817591         1.870439        -2.701263
 C         3.452789         1.147209        -1.573158
 C         2.525602         0.610565        -0.430110
 O         1.689443         1.359989         0.476673
 H        -0.027448        -1.122328        -1.271954
 H         0.595001        -1.418570         0.237468
 H        -0.696903        -0.224320         0.248461
 H        -0.280129         0.705950        -2.415128
 H        -0.214730         2.156797        -1.339596
 H         0.953279         1.763918        -3.825955
 H         3.449617         1.958436        -3.638104
 H         3.797776         0.201668        -1.941257
 H         4.264373         1.785299        -1.293061
 H         3.039713        -0.273051         0.101007
