19
Iteration:  3713
 C         0.227380        -0.593234        -0.173068
 C         1.052242         0.530911        -0.685904
 C         0.462225         1.450865        -1.711289
 C         1.274872         1.981991        -2.779128
 O         2.167239         3.240596        -2.681985
 C         2.818641         1.956671        -2.674310
 C         3.458508         1.201301        -1.453667
 C         2.523433         0.477423        -0.515794
 O         1.664380         1.180722         0.460075
 H        -0.190404        -1.288807        -0.925136
 H         0.661554        -1.130183         0.576760
 H        -0.574473        -0.095187         0.310384
 H        -0.164889         0.701928        -2.329012
 H        -0.128549         2.118164        -1.281722
 H         0.825909         1.739367        -3.784889
 H         3.361084         1.867194        -3.624709
 H         3.903780         0.334188        -1.989226
 H         4.260141         1.659863        -0.830199
 H         2.966716        -0.561187        -0.045748
