19
Iteration:  1974charge 0 multiplicity 1
 C         0.265229        -0.663880        -0.035187
 C         0.977693         0.568323        -0.641538
 C         0.436653         1.241108        -1.839889
 C         1.338799         2.064629        -2.763070
 O         2.203451         3.185267        -2.420319
 C         2.838369         1.960953        -2.719760
 C         3.454541         1.023921        -1.598287
 C         2.481629         0.588057        -0.528201
 O         1.642129         1.425147         0.338655
 H         0.511201        -1.539534        -0.667932
 H         0.563280        -0.819684         1.033376
 H        -0.835619        -0.636403         0.002140
 H        -0.119016         0.516835        -2.533122
 H        -0.381341         1.881196        -1.448999
 H         0.867972         2.207525        -3.837749
 H         3.430194         1.971353        -3.742170
 H         3.872803         0.167171        -2.160351
 H         4.261867         1.591714        -1.131398
 H         2.818530        -0.341317        -0.081327
