19
Iteration:  1534charge 0 multiplicity 1
 C         0.065630        -0.432166         0.031434
 C         1.074481         0.522860        -0.655902
 C         0.378002         1.199398        -1.872777
 C         1.301316         2.099764        -2.712939
 O         2.086189         3.085958        -2.112450
 C         2.814097         2.003898        -2.733475
 C         3.488226         1.087316        -1.732199
 C         2.554108         0.456376        -0.702570
 O         1.886215         1.333877         0.209236
 H        -0.666501        -0.522873        -0.791803
 H         0.392319        -1.548008         0.424922
 H        -0.363139        -0.024945         0.954427
 H         0.005073         0.439232        -2.558229
 H        -0.549653         1.736811        -1.405744
 H         0.850046         2.404845        -3.645904
 H         3.383390         2.246840        -3.624185
 H         4.013189         0.241343        -2.247686
 H         4.332700         1.644784        -1.240898
 H         2.974137        -0.433127        -0.256272
