19
Iteration:  3249
 C         0.239068        -0.629155        -0.534687
 C         0.987361         0.631430        -0.609679
 C         0.432515         1.702660        -1.421470
 C         1.294248         1.815060        -2.636184
 O         2.196408         3.076609        -2.998561
 C         2.812759         1.748486        -2.706430
 C         3.427078         1.527904        -1.316627
 C         2.480486         0.556822        -0.560087
 O         1.764243         1.008262         0.601556
 H         0.278986        -1.205918        -1.493720
 H         0.663170        -1.337276         0.159768
 H        -0.905313        -0.396173        -0.196335
 H        -0.469231         1.280438        -1.689156
 H         0.136481         2.613831        -0.884510
 H         0.831334         1.477383        -3.582068
 H         3.226047         1.104691        -3.499134
 H         4.469619         1.019395        -1.447666
 H         3.522145         2.454807        -0.708648
 H         2.832810        -0.463481        -0.281134
