19
Iteration:  1959charge 0 multiplicity 1
 C         0.221932        -0.690046        -0.077246
 C         1.000890         0.451659        -0.723772
 C         0.275137         1.376441        -1.809602
 C         1.359522         2.004474        -2.711361
 O         2.215940         3.183597        -2.410870
 C         2.811026         1.862529        -2.745570
 C         3.522943         1.183233        -1.555883
 C         2.478864         0.501290        -0.503855
 O         1.709070         1.444066         0.252600
 H         0.490281        -1.695175        -0.350726
 H         0.690479        -0.724366         1.031710
 H        -0.813510        -0.404658        -0.140251
 H        -0.243902         0.571076        -2.528204
 H        -0.419359         2.095291        -1.375243
 H         0.931312         2.229158        -3.636948
 H         3.238953         1.839545        -3.665693
 H         4.104313         0.303491        -1.836090
 H         4.261983         1.804290        -1.015038
 H         2.949407        -0.179071         0.181123
