19
Iteration:  1709
 C         0.213387        -0.452082         0.036990
 C         1.044469         0.514058        -0.773576
 C         0.373733         1.233312        -1.901406
 C         1.346764         1.977925        -2.838226
 O         2.025685         3.084872        -2.173090
 C         2.808459         1.958522        -2.594630
 C         3.533402         1.119189        -1.579278
 C         2.557027         0.433431        -0.603562
 O         1.757729         1.401039         0.135715
 H         0.806637        -0.934566         0.794975
 H        -0.611427         0.247058         0.500242
 H        -0.243788        -1.221075        -0.461107
 H        -0.195770         0.508445        -2.385932
 H        -0.382464         2.016967        -1.618110
 H         0.818934         2.429727        -3.768918
 H         3.590512         2.345853        -3.441998
 H         4.010961         0.330614        -2.207922
 H         4.316301         1.712465        -1.055209
 H         2.861871        -0.475182        -0.104226
