19
Iteration:  1823charge 0 multiplicity 1
 C         0.293373        -0.583093        -0.086546
 C         0.994799         0.627064        -0.707292
 C         0.426808         1.226327        -1.896024
 C         1.364789         1.986422        -2.752298
 O         2.075841         3.000849        -2.162993
 C         2.814415         1.830115        -2.687162
 C         3.500360         1.160945        -1.533643
 C         2.433243         0.587977        -0.613644
 O         1.736806         1.523914         0.166074
 H        -0.366757        -1.236803        -0.784918
 H         0.977932        -1.195189         0.406730
 H        -0.479535        -0.205253         0.704784
 H        -0.133275         0.439104        -2.410328
 H        -0.401320         2.000207        -1.631432
 H         1.027340         2.163355        -3.717087
 H         3.309467         1.980558        -3.675754
 H         4.041477         0.272992        -1.972348
 H         4.245719         1.811255        -1.011257
 H         2.876011        -0.299136        -0.025644
