19
Iteration:  3064
 C         0.183041        -0.621263        -0.313953
 C         1.016683         0.617985        -0.636315
 C         0.484549         1.562498        -1.701106
 C         1.314004         1.902533        -2.927050
 O         2.060891         3.090210        -2.558146
 C         2.797820         1.820822        -2.693864
 C         3.389018         1.340760        -1.414993
 C         2.488791         0.495814        -0.510097
 O         1.882435         1.162620         0.507556
 H         0.204294        -1.462683        -1.023094
 H         0.545097        -1.027403         0.580684
 H        -0.862038        -0.274361        -0.092369
 H        -0.408515         1.043050        -2.097148
 H        -0.014335         2.524691        -1.153673
 H         1.003698         1.709214        -4.006613
 H         3.369094         1.651300        -3.678619
 H         4.391979         0.771082        -1.592868
 H         3.725055         2.185314        -0.869461
 H         2.902100        -0.449544        -0.276275
