19
Iteration:  4394charge 0 multiplicity 1
 C         0.217318        -0.591720         0.102358
 C         0.972944         0.491543        -0.699275
 C         0.483328         1.212741        -1.932533
 C         1.445909         2.019440        -2.789931
 O         2.132784         3.241936        -2.309006
 C         2.882613         2.018066        -2.648603
 C         3.413770         1.086523        -1.571541
 C         2.459099         0.433464        -0.648934
 O         1.629556         1.385127         0.217391
 H        -0.489397        -1.233077        -0.375626
 H         0.861129        -1.225601         0.569467
 H        -0.451313         0.009432         0.841626
 H         0.101247         0.335012        -2.440576
 H        -0.347699         2.072606        -1.552462
 H         0.896279         2.259021        -3.707448
 H         3.597484         2.307085        -3.483234
 H         4.032187         0.405665        -2.267163
 H         4.239213         1.658216        -0.954822
 H         2.894094        -0.506604        -0.294267
