19
Iteration:  4081
 C         0.317918        -0.693666        -0.242444
 C         1.050155         0.559495        -0.705755
 C         0.435506         1.588100        -1.606675
 C         1.338848         1.904569        -2.765083
 O         2.114711         3.082278        -2.594548
 C         2.808828         1.879764        -2.698920
 C         3.489730         1.221478        -1.470097
 C         2.465773         0.558012        -0.578684
 O         1.591636         1.256594         0.414553
 H        -0.053141        -1.315208        -1.092000
 H         0.927950        -1.339067         0.299245
 H        -0.410273        -0.308813         0.408568
 H        -0.606373         1.266345        -1.981151
 H         0.364384         2.464122        -1.015655
 H         0.934071         1.944058        -3.821855
 H         3.402720         1.786019        -3.636386
 H         4.147328         0.366833        -1.654806
 H         4.118121         1.985497        -0.963112
 H         3.018595        -0.336651        -0.243936
