19
Iteration:  2936charge 0 multiplicity 1
 C         0.164215        -0.361350        -0.019243
 C         1.112847         0.534394        -0.734999
 C         0.500007         1.029731        -2.029016
 C         1.313253         2.105936        -2.721603
 O         1.975679         3.068896        -1.961488
 C         2.737325         1.936368        -2.627559
 C         3.489463         1.033536        -1.640429
 C         2.617058         0.475873        -0.523874
 O         1.782706         1.510171         0.002687
 H        -0.182118        -1.172374        -0.750953
 H         0.445746        -0.722995         0.977431
 H        -0.771749         0.150397         0.099414
 H         0.299289         0.151088        -2.679308
 H        -0.421637         1.443186        -1.743829
 H         0.914233         2.343647        -3.704760
 H         3.314495         2.196894        -3.478546
 H         3.679363         0.190896        -2.233385
 H         4.438377         1.514934        -1.198598
 H         2.974724        -0.258153         0.229916
