19
Iteration:   401charge 0 multiplicity 1
 C         0.273033        -0.606398        -0.173952
 C         1.102132         0.614583        -0.695421
 C         0.295359         1.595363        -1.572003
 C         1.168135         2.357082        -2.585429
 O         2.353528         3.101590        -2.188660
 C         2.564677         1.863569        -2.793125
 C         3.310041         0.900842        -1.900298
 C         2.517366         0.424159        -0.729096
 O         1.984786         1.145924         0.381093
 H         0.556216        -0.738395         0.803835
 H        -0.847993        -0.494968        -0.186175
 H         0.477344        -1.503390        -0.723229
 H        -0.409419         1.107341        -2.174770
 H        -0.316077         2.289751        -0.961642
 H         0.538914         2.787230        -3.424010
 H         2.975516         1.962453        -3.868164
 H         3.804287         0.085215        -2.438965
 H         4.223537         1.501247        -1.643502
 H         2.865032        -0.599552        -0.448195
