19
Iteration:  1516charge 0 multiplicity 1
 C         0.202841        -0.445184         0.049945
 C         1.039459         0.487976        -0.789501
 C         0.391268         1.274523        -1.876698
 C         1.284698         2.020372        -2.765594
 O         2.150689         3.125121        -2.004120
 C         2.738431         1.992460        -2.618909
 C         3.450872         1.007315        -1.711879
 C         2.538724         0.373216        -0.682159
 O         1.805338         1.403721         0.053477
 H        -0.492039        -1.101179        -0.414182
 H         0.898919        -0.914990         0.668431
 H        -0.199558         0.239892         0.916795
 H        -0.333701         0.596008        -2.422614
 H        -0.273008         1.965549        -1.487315
 H         0.880005         2.467143        -3.652081
 H         3.296521         2.317288        -3.503253
 H         3.975087         0.309185        -2.328561
 H         4.197995         1.651173        -1.242609
 H         3.033615        -0.373283         0.021903
