19
Iteration:   772
 C         0.245747        -0.655863        -0.147976
 C         1.103823         0.580184        -0.638204
 C         0.372636         1.630115        -1.567809
 C         1.225231         2.325910        -2.541134
 O         2.259279         3.237661        -2.115740
 C         2.630030         1.957935        -2.756746
 C         3.302209         0.781158        -2.048454
 C         2.504289         0.323837        -0.789314
 O         1.993579         1.229308         0.358299
 H        -0.905896        -0.492931         0.040490
 H         0.103986        -1.393895        -1.029603
 H         0.720397        -1.037498         0.733557
 H        -0.494588         1.073717        -2.079394
 H        -0.152344         2.344064        -0.941637
 H         0.716722         2.501182        -3.522312
 H         2.944717         2.192981        -3.755879
 H         3.337620        -0.123268        -2.694250
 H         4.390054         0.922573        -1.779099
 H         2.737379        -0.619660        -0.351959
