19
Iteration:  4502charge 0 multiplicity 1
 C         0.296101        -0.667466        -0.256814
 C         1.060128         0.511167        -0.618934
 C         0.450666         1.640413        -1.563378
 C         1.350659         1.996380        -2.815261
 O         2.207329         3.186516        -2.794314
 C         2.811470         1.896825        -2.732408
 C         3.394283         1.333959        -1.454461
 C         2.476623         0.420166        -0.512154
 O         1.644394         1.070802         0.505742
 H         0.563540        -1.725308        -0.444343
 H         0.195292        -0.594899         0.817230
 H        -0.883844        -0.652044        -0.479345
 H        -0.481041         1.219474        -2.104902
 H         0.025199         2.441767        -1.062491
 H         0.741773         1.937735        -3.747972
 H         3.318889         1.536834        -3.713512
 H         4.220288         0.710876        -1.668193
 H         3.740896         2.114143        -0.759519
 H         2.891090        -0.535660        -0.175964
