19
Iteration:  3503
 C         0.197080        -0.612629        -0.099889
 C         1.049856         0.547093        -0.607628
 C         0.413757         1.408796        -1.840217
 C         1.330024         2.016455        -2.934969
 O         2.126658         3.235995        -2.576780
 C         2.804130         1.961832        -2.660066
 C         3.346944         1.193604        -1.448811
 C         2.509877         0.344980        -0.516244
 O         1.803698         1.214196         0.459983
 H         0.107221        -1.264838        -0.934379
 H         0.549804        -1.210082         0.784479
 H        -0.698811        -0.146245         0.092108
 H        -0.248119         0.801456        -2.338026
 H         0.018638         2.441721        -1.368607
 H         0.858825         2.021328        -3.969520
 H         3.598097         2.063767        -3.434062
 H         4.032380         0.426869        -1.934907
 H         3.998299         1.998581        -1.057026
 H         3.110933        -0.508196        -0.065719
