19
Iteration:  4110charge 0 multiplicity 1
 C         0.145189        -0.696677        -0.307733
 C         1.044336         0.558098        -0.524321
 C         0.472864         1.522356        -1.696453
 C         1.339439         1.913527        -2.841918
 O         2.058335         3.171422        -2.776919
 C         2.819170         1.999502        -2.684950
 C         3.420804         1.260842        -1.420290
 C         2.539202         0.451916        -0.501282
 O         1.789723         1.198193         0.563123
 H         0.040619        -1.124176        -1.275451
 H         0.566088        -1.511871         0.350177
 H        -0.901177        -0.309203         0.131582
 H        -0.487639         1.009846        -2.072298
 H         0.189212         2.506726        -1.213477
 H         0.914626         1.847715        -3.810920
 H         3.478573         1.756728        -3.581231
 H         4.081253         0.449445        -1.777865
 H         4.172564         1.976866        -1.023435
 H         3.038324        -0.479345         0.027446
