19
Iteration:  1673charge 0 multiplicity 1
 C         0.207483        -0.576583        -0.094751
 C         1.023988         0.560127        -0.591856
 C         0.494441         1.209743        -1.800475
 C         1.338280         2.017531        -2.794877
 O         2.133929         3.235642        -2.353865
 C         2.795562         2.001159        -2.719715
 C         3.386701         1.066680        -1.672162
 C         2.479881         0.482603        -0.533240
 O         1.775449         1.371113         0.343698
 H         0.127729        -0.532137         1.090559
 H        -0.792299        -0.366590        -0.430969
 H         0.508927        -1.644622        -0.455910
 H         0.195969         0.356267        -2.479563
 H        -0.358550         1.726572        -1.525455
 H         0.634397         2.378565        -3.679297
 H         3.599662         2.118810        -3.584152
 H         3.631125         0.203508        -2.299665
 H         4.359655         1.460072        -1.372359
 H         2.863906        -0.383120         0.001295
