19
Iteration:  2980
 C         0.276814        -0.585009         0.053654
 C         0.983587         0.588417        -0.683992
 C         0.446056         1.181750        -2.004368
 C         1.409487         2.015396        -2.769272
 O         2.132301         3.112007        -2.165883
 C         2.865984         1.992341        -2.633883
 C         3.426064         1.031719        -1.698698
 C         2.472870         0.605085        -0.586205
 O         1.620003         1.458695         0.229678
 H        -0.159687        -1.346595        -0.657929
 H         1.100590        -0.967511         0.682423
 H        -0.491271        -0.355214         0.735127
 H         0.128506         0.375022        -2.663847
 H        -0.384944         1.733230        -1.826972
 H         0.899296         2.284284        -3.689365
 H         3.440304         2.085423        -3.519716
 H         3.614567         0.139111        -2.228714
 H         4.386648         1.423369        -1.270222
 H         2.888454        -0.297037        -0.091781
