19
Iteration:   348charge 0 multiplicity 1
 C         0.114261        -0.527307         0.008305
 C         1.050312         0.452106        -0.694538
 C         0.357173         1.467696        -1.631606
 C         1.265417         2.192504        -2.654268
 O         2.188029         3.240619        -2.046487
 C         2.718499         2.012624        -2.701626
 C         3.383877         0.910495        -1.939659
 C         2.595199         0.314402        -0.810177
 O         1.982325         1.235516         0.169375
 H         0.546331        -1.316528         0.498139
 H        -0.336119         0.060556         0.809046
 H        -0.845415        -0.736102        -0.617575
 H        -0.613814         1.030592        -2.110315
 H        -0.037046         2.306833        -0.957913
 H         0.868003         2.420115        -3.638220
 H         3.063725         2.193336        -3.684874
 H         3.486435         0.073207        -2.674466
 H         4.395700         1.139516        -1.663995
 H         2.979015        -0.510795        -0.227631
