19
Iteration:  4739charge 0 multiplicity 1
 C         0.089429        -0.664675        -0.329419
 C         1.057043         0.630341        -0.597763
 C         0.357221         1.511051        -1.620833
 C         1.313965         1.950939        -2.790785
 O         2.215155         3.103994        -2.653727
 C         2.767254         1.752250        -2.749066
 C         3.413400         1.401895        -1.386299
 C         2.525121         0.534360        -0.642363
 O         1.867416         1.155313         0.543525
 H         0.438495        -1.096725        -1.338292
 H         0.268607        -1.223630         0.653352
 H        -0.941549        -0.419848        -0.310053
 H        -0.411605         0.994583        -2.084547
 H        -0.261288         2.305513        -1.128143
 H         1.013228         1.953552        -3.903487
 H         3.298387         1.421104        -3.599227
 H         4.436407         0.848458        -1.456907
 H         3.630893         2.259971        -0.709534
 H         2.967585        -0.439518        -0.349754
