19
Iteration:  1890
 C         0.120517        -0.561398        -0.157961
 C         1.023511         0.592553        -0.555698
 C         0.463460         1.268647        -1.767293
 C         1.377821         1.918381        -2.886078
 O         2.037590         3.225948        -2.591064
 C         2.842015         2.041140        -2.678012
 C         3.497298         1.190355        -1.518609
 C         2.507757         0.447481        -0.506622
 O         1.768684         1.267501         0.472092
 H        -0.385457        -1.196490        -0.998256
 H         0.746155        -1.168295         0.408319
 H        -0.627423         0.040421         0.505615
 H        -0.006410         0.580161        -2.460802
 H        -0.365860         2.011995        -1.466287
 H         0.985744         1.805281        -3.839399
 H         3.466851         1.920781        -3.551722
 H         4.020452         0.426090        -2.182698
 H         4.407223         1.621845        -1.014078
 H         2.902227        -0.545314        -0.039277
