19
Iteration:  1186charge 0 multiplicity 1
 C         0.151037        -0.422567         0.115784
 C         1.039131         0.557952        -0.690980
 C         0.310222         1.422487        -1.799995
 C         1.338706         2.151857        -2.671558
 O         2.071117         3.202823        -1.938800
 C         2.775852         2.059920        -2.638689
 C         3.351173         0.840453        -1.943858
 C         2.518561         0.289692        -0.814487
 O         2.060167         1.227766         0.114344
 H         0.440289        -1.479395         0.024356
 H         0.327497        -0.280653         1.181022
 H        -0.928752        -0.340366        -0.146129
 H        -0.218122         0.772025        -2.430351
 H        -0.437234         2.157278        -1.565531
 H         0.856814         2.598275        -3.560902
 H         3.314326         2.431261        -3.624248
 H         3.490487         0.068363        -2.804225
 H         4.331688         1.240935        -1.506105
 H         2.950697        -0.704861        -0.430623
