19
Iteration:   207charge 0 multiplicity 1
 C         0.322423        -0.626521        -0.045782
 C         1.047983         0.678810        -0.616055
 C         0.244226         1.598673        -1.624178
 C         1.172569         2.328555        -2.581934
 O         2.401627         3.077751        -2.080218
 C         2.676213         1.889152        -2.810754
 C         3.260711         0.937763        -1.834045
 C         2.423350         0.330220        -0.858632
 O         1.995246         1.219515         0.222658
 H         0.838185        -0.901796         0.811631
 H        -0.766274        -0.575394         0.157355
 H         0.408410        -1.491821        -0.862792
 H        -0.116875         0.843057        -2.397428
 H        -0.594896         2.146954        -1.305317
 H         0.693286         2.879896        -3.289650
 H         2.985836         2.015351        -3.787262
 H         3.752592         0.123581        -2.461941
 H         4.116786         1.430739        -1.432923
 H         2.613030        -0.713821        -0.631722
