19
Iteration:  2413
 C         0.109723        -0.518305         0.037991
 C         1.057140         0.429159        -0.709513
 C         0.413758         1.245075        -1.904397
 C         1.380982         2.004589        -2.830357
 O         2.149707         3.242587        -2.466960
 C         2.819320         2.003063        -2.672778
 C         3.388758         1.206964        -1.508129
 C         2.525139         0.470284        -0.549166
 O         1.794900         1.260280         0.335823
 H        -0.606149        -1.058741        -0.695260
 H         0.603255        -1.227130         0.618827
 H        -0.349849         0.145912         0.792039
 H        -0.124074         0.441914        -2.564106
 H        -0.407062         1.920968        -1.589552
 H         1.008323         1.967483        -3.934724
 H         3.368692         1.967297        -3.626599
 H         4.198194         0.531372        -1.846583
 H         3.901770         1.763387        -0.748081
 H         2.993735        -0.434251        -0.064060
