19
Iteration:  1338charge 0 multiplicity 1
 C         0.042134        -0.535138        -0.153127
 C         1.078053         0.566232        -0.585080
 C         0.424687         1.476200        -1.583263
 C         1.250314         2.157446        -2.722596
 O         2.182000         3.142712        -2.292907
 C         2.680230         1.887744        -2.784305
 C         3.412854         1.056207        -1.788356
 C         2.626367         0.443776        -0.609576
 O         1.931458         1.204919         0.328413
 H        -0.678461        -0.176957         0.715495
 H        -0.489368        -0.657525        -1.241453
 H         0.407798        -1.552639         0.026178
 H        -0.025403         0.588754        -2.244522
 H        -0.294453         2.087919        -1.069916
 H         0.671629         2.340593        -3.557534
 H         3.222503         1.888743        -3.788275
 H         3.893610         0.270114        -2.350754
 H         4.235448         1.723390        -1.461188
 H         3.110368        -0.551962        -0.259401
