19
Iteration:    39
 C         0.253451        -0.478857        -0.299734
 C         1.073045         0.733824        -0.599047
 C         0.409531         1.638873        -1.545064
 C         1.137595         2.169065        -2.638156
 O         2.129798         3.080798        -2.088018
 C         2.623229         1.829062        -2.714280
 C         3.348214         0.885175        -1.882500
 C         2.535964         0.391545        -0.778489
 O         2.069761         1.167669         0.324644
 H         0.616975        -1.145424         0.591873
 H        -0.782785        -0.154379        -0.008912
 H         0.343724        -1.143852        -1.187653
 H        -0.380563         1.052159        -2.076677
 H        -0.044652         2.544446        -0.999198
 H         0.691080         2.524837        -3.604607
 H         3.138219         2.026186        -3.688446
 H         3.421770        -0.052221        -2.501244
 H         4.432467         1.129036        -1.710749
 H         2.842843        -0.631170        -0.485997
