19
Iteration:  1451charge 0 multiplicity 1
 C         0.120704        -0.508904        -0.116361
 C         1.088446         0.556373        -0.605415
 C         0.468077         1.208522        -1.808133
 C         1.255034         2.177116        -2.695435
 O         2.156151         3.124296        -2.118822
 C         2.735256         1.946757        -2.806274
 C         3.384652         0.942441        -1.817938
 C         2.562419         0.523343        -0.583668
 O         1.881301         1.399991         0.298173
 H         0.403646        -1.524910        -0.192234
 H        -0.098171        -0.215800         0.832799
 H        -0.957391        -0.456159        -0.590225
 H         0.242196         0.393744        -2.606845
 H        -0.522768         1.589344        -1.534490
 H         0.605405         2.589178        -3.521083
 H         3.461579         2.247602        -3.697375
 H         3.515164        -0.043259        -2.294349
 H         4.361333         1.334581        -1.484924
 H         3.058144        -0.293515         0.039725
