19
Iteration:   846charge 0 multiplicity 1
 C         0.218592        -0.291245         0.157745
 C         1.058865         0.564502        -0.741586
 C         0.391304         1.385087        -1.838687
 C         1.264089         2.224726        -2.702086
 O         2.052125         3.139433        -1.870142
 C         2.722082         2.078838        -2.562687
 C         3.298039         0.932307        -1.953646
 C         2.398524         0.188488        -0.958102
 O         2.187418         1.127418         0.116502
 H         0.055474         0.281740         1.160697
 H        -0.734591        -0.757612        -0.332845
 H         0.742078        -1.084840         0.549291
 H        -0.233226         0.657876        -2.472182
 H        -0.456981         1.977913        -1.319242
 H         0.902172         2.767591        -3.530906
 H         3.222589         2.377253        -3.448838
 H         3.737320         0.306649        -2.756318
 H         4.131500         1.172903        -1.324529
 H         2.629986        -0.817077        -0.661821
