19
Iteration:  2410charge 0 multiplicity 1
 C         0.094993        -0.537567         0.078741
 C         1.044236         0.424301        -0.724090
 C         0.411583         1.245456        -1.905494
 C         1.399502         2.011497        -2.834567
 O         2.130636         3.258885        -2.469227
 C         2.860821         2.015900        -2.685140
 C         3.369896         1.189815        -1.506061
 C         2.541461         0.461039        -0.545885
 O         1.791930         1.271293         0.333243
 H        -0.486705        -1.054632        -0.695915
 H         0.546455        -1.287866         0.687720
 H        -0.391874         0.153092         0.743374
 H        -0.072761         0.526300        -2.557614
 H        -0.510348         1.919001        -1.619173
 H         1.040498         1.973704        -3.883477
 H         3.346422         1.939760        -3.657289
 H         4.158812         0.491423        -1.893795
 H         3.918999         1.804879        -0.744905
 H         3.057462        -0.518850        -0.125166
