19
Iteration:  1564charge 0 multiplicity 1
 C         0.113648        -0.405536        -0.043575
 C         1.129681         0.584119        -0.578762
 C         0.483773         1.200306        -1.873086
 C         1.245320         2.086533        -2.832679
 O         2.083531         3.247416        -2.301136
 C         2.757105         2.041700        -2.725428
 C         3.358848         1.042483        -1.664703
 C         2.576889         0.398606        -0.577208
 O         1.908308         1.185080         0.391453
 H        -0.767229        -0.241784        -0.699159
 H         0.366219        -1.424493        -0.293171
 H        -0.111708        -0.326274         0.938668
 H         0.072469         0.353178        -2.422736
 H        -0.472639         1.658161        -1.445039
 H         0.802279         2.413565        -3.865055
 H         3.294044         2.065926        -3.818325
 H         3.838156         0.189214        -2.223596
 H         4.174301         1.673208        -1.259511
 H         2.993436        -0.505017        -0.189639
