19
Iteration:  3267charge 0 multiplicity 1
 C         0.225754        -0.653249        -0.576596
 C         1.061764         0.577293        -0.548011
 C         0.483748         1.724763        -1.450489
 C         1.312976         1.898119        -2.774220
 O         2.133454         2.978033        -2.949014
 C         2.738065         1.766209        -2.714513
 C         3.412443         1.472650        -1.361476
 C         2.591362         0.581117        -0.454077
 O         1.676107         1.056840         0.671390
 H        -0.021213        -0.843837        -1.603250
 H         0.682601        -1.528456        -0.165918
 H        -0.691836        -0.443511        -0.109377
 H        -0.587535         1.492294        -1.819849
 H         0.591275         2.623488        -0.904671
 H         0.778008         1.572677        -3.656132
 H         3.472188         1.508227        -3.503055
 H         4.260673         0.856763        -1.541372
 H         3.620369         2.425955        -0.825557
 H         3.061465        -0.485461        -0.265699
