19
Iteration:  1383
 C         0.249658        -0.549707         0.139842
 C         0.978979         0.571183        -0.643977
 C         0.308265         1.546169        -1.753302
 C         1.348638         2.074117        -2.797701
 O         2.142615         3.227384        -2.309235
 C         2.776739         1.923456        -2.660346
 C         3.445733         1.087368        -1.628368
 C         2.467181         0.337641        -0.821513
 O         1.858288         1.139748         0.196378
 H         0.851155        -0.747883         1.049523
 H        -0.887549        -0.348547         0.189568
 H         0.270511        -1.563981        -0.413678
 H        -0.540772         0.924842        -2.255425
 H         0.019790         2.465007        -1.298370
 H         0.936515         2.176729        -3.771949
 H         3.539801         2.199990        -3.487900
 H         3.999946         0.314456        -2.156390
 H         4.091971         1.687475        -0.972880
 H         2.837373        -0.715530        -0.485011
