19
Iteration:  4792
 C         0.251162        -0.761316        -0.236142
 C         1.027794         0.544963        -0.670073
 C         0.432920         1.539791        -1.676903
 C         1.326503         1.952464        -2.802216
 O         2.135692         3.135421        -2.524921
 C         2.800513         1.907222        -2.688582
 C         3.474990         1.144463        -1.520488
 C         2.489422         0.551057        -0.482105
 O         1.662888         1.331138         0.351863
 H         0.343805        -1.696732        -0.819530
 H         0.847358        -1.082494         0.681324
 H        -0.798824        -0.509432        -0.086302
 H        -0.574624         1.447439        -2.073022
 H         0.278375         2.476289        -1.004978
 H         1.012801         1.949869        -3.788593
 H         3.449454         1.915813        -3.517580
 H         3.862189         0.249593        -2.100223
 H         4.276802         1.729230        -1.036595
 H         2.914754        -0.335636         0.039745
