19
Iteration:  4165
 C         0.151719        -0.667748        -0.152374
 C         0.974102         0.501117        -0.638181
 C         0.398424         1.511091        -1.666953
 C         1.320948         1.903027        -2.802471
 O         2.211153         3.103654        -2.603190
 C         2.845610         1.846840        -2.685441
 C         3.475135         1.457041        -1.367399
 C         2.469258         0.468474        -0.697432
 O         1.773980         1.176045         0.357275
 H         0.083643        -1.470955        -0.865010
 H         0.673439        -0.921739         0.755107
 H        -0.983605        -0.360267         0.104010
 H        -0.592050         1.119823        -2.072170
 H         0.123036         2.402077        -1.060569
 H         0.906765         1.856224        -3.791583
 H         3.516918         1.832986        -3.602476
 H         4.434194         0.975943        -1.469702
 H         3.629620         2.471962        -1.102224
 H         2.862091        -0.478549        -0.234175
