19
Iteration:  4800charge 0 multiplicity 1
 C         0.211766        -0.774761        -0.209310
 C         1.028817         0.543288        -0.694999
 C         0.345933         1.564574        -1.717675
 C         1.353055         1.971241        -2.843869
 O         2.130400         3.133877        -2.451101
 C         2.875468         1.901900        -2.688038
 C         3.441146         1.144573        -1.513557
 C         2.531213         0.538137        -0.550917
 O         1.705946         1.389781         0.372016
 H         0.185940        -1.648248        -0.845614
 H         0.832077        -1.220214         0.626938
 H        -0.868398        -0.794738         0.244099
 H        -0.672934         0.968514        -2.086156
 H         0.172902         2.399122        -1.009309
 H         0.974482         1.885955        -3.857344
 H         3.426780         1.816156        -3.703403
 H         3.886461         0.306301        -1.987650
 H         4.262559         1.612227        -0.973934
 H         3.002270        -0.210308         0.085328
