19
Iteration:  1906charge 0 multiplicity 1
 C         0.113379        -0.533408        -0.134530
 C         1.048564         0.607514        -0.641255
 C         0.411035         1.371507        -1.858871
 C         1.351404         1.880308        -2.841026
 O         2.033720         3.129673        -2.503878
 C         2.830600         1.933981        -2.640637
 C         3.470549         1.230773        -1.513836
 C         2.542676         0.557467        -0.554465
 O         1.842025         1.242808         0.463239
 H         0.048388        -1.173988        -0.982982
 H         0.523091        -1.308308         0.709888
 H        -0.889775        -0.256404         0.120203
 H        -0.241756         0.453473        -2.223694
 H        -0.223963         2.175010        -1.559302
 H         1.002866         1.898114        -3.958424
 H         3.482161         2.041521        -3.530463
 H         3.981601         0.349451        -1.928075
 H         4.212198         1.797967        -0.949233
 H         2.910630        -0.359333        -0.217324
