19
Iteration:  4685charge 0 multiplicity 1
 C         0.113656        -0.729353        -0.170709
 C         1.007095         0.530729        -0.682973
 C         0.567737         1.611012        -1.625227
 C         1.386396         1.875152        -2.882607
 O         2.106152         3.163810        -2.840385
 C         2.811234         1.968126        -2.644279
 C         3.450387         1.414957        -1.390037
 C         2.496698         0.490248        -0.524398
 O         1.692429         1.033181         0.530948
 H        -0.604809        -0.812416        -1.075188
 H         0.738653        -1.678927         0.056943
 H        -0.442025        -0.422598         0.661047
 H        -0.577755         1.504714        -1.886648
 H         0.694673         2.556917        -1.024316
 H         0.913531         1.873854        -3.966654
 H         3.378869         1.633406        -3.506559
 H         4.297908         0.733834        -1.745223
 H         3.959044         2.155376        -0.745954
 H         2.897720        -0.484298        -0.170633
