19
Iteration:  1187
 C         0.153833        -0.414125         0.105560
 C         1.033442         0.562387        -0.689077
 C         0.316773         1.410276        -1.796171
 C         1.333814         2.150461        -2.671092
 O         2.065557         3.200136        -1.936569
 C         2.770601         2.062452        -2.642172
 C         3.358624         0.828394        -1.943585
 C         2.520109         0.295712        -0.817736
 O         2.071771         1.227461         0.121050
 H         0.402569        -1.461685         0.010321
 H         0.331487        -0.268299         1.147295
 H        -0.998673        -0.324256        -0.170569
 H        -0.168226         0.746311        -2.426425
 H        -0.442068         2.171009        -1.549130
 H         0.811322         2.623296        -3.575302
 H         3.313514         2.447022        -3.607147
 H         3.509593         0.080836        -2.804492
 H         4.306761         1.214656        -1.479456
 H         2.935490        -0.668039        -0.424716
