19
Iteration:  4159charge 0 multiplicity 1
 C         0.120376        -0.645420        -0.159758
 C         0.989096         0.510526        -0.651628
 C         0.356800         1.523506        -1.657383
 C         1.300590         1.901818        -2.838882
 O         2.222233         3.060601        -2.579844
 C         2.805486         1.811093        -2.686553
 C         3.484633         1.489054        -1.385351
 C         2.526912         0.507411        -0.674976
 O         1.783799         1.151778         0.372010
 H         0.053182        -1.452087        -0.954588
 H         0.578866        -0.914518         0.818091
 H        -0.821563        -0.287798        -0.029412
 H        -0.586748         1.070326        -2.062267
 H         0.065747         2.354276        -1.005145
 H         1.013886         1.912114        -3.931684
 H         3.486347         1.799308        -3.523615
 H         4.523164         1.073073        -1.453439
 H         3.658918         2.509062        -0.831347
 H         2.961850        -0.498844        -0.442201
