19
Iteration:   832
 C         0.192133        -0.288647         0.159179
 C         1.063774         0.604576        -0.718223
 C         0.286632         1.398629        -1.772567
 C         1.190181         2.308187        -2.610541
 O         2.130280         3.113922        -1.899678
 C         2.682334         2.056418        -2.698081
 C         3.410357         0.933930        -1.862024
 C         2.506894         0.181651        -0.957707
 O         2.118178         1.075797         0.074866
 H        -0.248658         0.336588         0.905885
 H        -0.624343        -0.714451        -0.422042
 H         0.750126        -1.167583         0.555052
 H        -0.055098         0.494250        -2.567191
 H        -0.622089         2.005879        -1.445843
 H         0.657053         2.653437        -3.496606
 H         3.342728         2.505069        -3.593338
 H         3.743160         0.174161        -2.573659
 H         4.246440         1.368496        -1.310540
 H         2.894157        -0.884219        -0.716009
