19
Iteration:  2240charge 0 multiplicity 1
 C         0.057761        -0.385158        -0.115896
 C         1.099668         0.547612        -0.657486
 C         0.447368         1.310944        -1.829212
 C         1.288193         1.845190        -2.885363
 O         2.020737         3.025616        -2.243032
 C         2.828469         1.929416        -2.632230
 C         3.573059         1.267667        -1.506455
 C         2.582520         0.424105        -0.607203
 O         1.808524         1.341340         0.232759
 H        -0.260250        -0.850689        -1.123151
 H         0.358247        -1.209544         0.398723
 H        -0.891517         0.138444         0.241776
 H        -0.240342         0.580134        -2.334454
 H        -0.256943         2.121232        -1.521765
 H         0.749702         2.078302        -3.807358
 H         3.517672         2.117168        -3.513620
 H         4.280353         0.537901        -1.884119
 H         4.119455         1.931216        -0.822326
 H         2.870077        -0.447640        -0.048554
