19
Iteration:  3079charge 0 multiplicity 1
 C         0.245078        -0.629431        -0.266452
 C         1.088412         0.581334        -0.631596
 C         0.369749         1.555574        -1.668418
 C         1.303269         1.941125        -2.799076
 O         2.144576         3.178988        -2.787040
 C         2.774907         1.846005        -2.629821
 C         3.424504         1.302568        -1.389863
 C         2.544419         0.410654        -0.545566
 O         1.741266         1.166915         0.510727
 H         0.180952        -1.255699        -1.202164
 H         0.691380        -1.323763         0.550615
 H        -0.716705        -0.314728        -0.059186
 H        -0.546910         1.117442        -2.042488
 H         0.173974         2.472587        -1.190541
 H         0.840126         1.855109        -3.761741
 H         3.356630         1.728418        -3.483137
 H         4.206964         0.694875        -1.710942
 H         3.739114         2.129870        -0.705911
 H         2.932566        -0.584331        -0.197632
