19
Iteration:  4288charge 0 multiplicity 1
 C         0.249084        -0.482707         0.135751
 C         1.001469         0.487158        -0.737853
 C         0.485149         1.167390        -1.985746
 C         1.371428         2.115777        -2.790148
 O         2.114015         3.221125        -2.168695
 C         2.857105         2.040604        -2.684506
 C         3.448327         1.025604        -1.606455
 C         2.450801         0.417100        -0.577958
 O         1.665121         1.359249         0.149310
 H         0.455967        -1.439662        -0.378221
 H         0.564206        -0.476755         1.195055
 H        -0.899612        -0.259567         0.092422
 H         0.005694         0.240656        -2.586386
 H        -0.390410         1.641746        -1.671063
 H         1.064876         2.336861        -3.814000
 H         3.551171         2.366184        -3.516976
 H         3.770999         0.340959        -2.374314
 H         4.298004         1.374440        -1.087916
 H         2.784160        -0.503968         0.026949
