19
Iteration:  3320charge 0 multiplicity 1
 C         0.165774        -0.684582        -0.435204
 C         0.982549         0.589213        -0.582788
 C         0.420355         1.735517        -1.451091
 C         1.339707         1.840320        -2.741877
 O         2.173284         3.061308        -2.979965
 C         2.813910         1.786845        -2.703038
 C         3.472182         1.526447        -1.309142
 C         2.547769         0.558565        -0.566024
 O         1.711838         1.005600         0.598249
 H        -0.294615        -1.041080        -1.405745
 H         0.847810        -1.610747        -0.212114
 H        -0.560218        -0.590363         0.351853
 H        -0.695273         1.571494        -1.832537
 H         0.365178         2.709561        -0.866345
 H         1.021391         1.473804        -3.719474
 H         3.255744         1.209283        -3.546981
 H         4.443573         1.064477        -1.387672
 H         3.596726         2.512032        -0.786467
 H         2.985624        -0.455137        -0.412172
