19
Iteration:  3511
 C         0.149284        -0.575233        -0.068328
 C         1.037419         0.511201        -0.613148
 C         0.514683         1.396267        -1.880234
 C         1.365013         2.042934        -2.956290
 O         2.072030         3.212569        -2.512190
 C         2.792377         1.975171        -2.697858
 C         3.361308         1.180462        -1.463918
 C         2.499069         0.419948        -0.538827
 O         1.854838         1.204900         0.444747
 H         0.088033        -1.336224        -0.816394
 H         0.559440        -1.070469         0.829176
 H        -0.866242        -0.205781         0.235582
 H        -0.307092         0.735264        -2.336368
 H        -0.209132         2.139192        -1.447872
 H         0.920622         1.997987        -3.971336
 H         3.594618         2.202768        -3.426726
 H         4.019120         0.403344        -1.899870
 H         3.987053         1.814906        -0.841524
 H         2.792070        -0.617031        -0.013668
