19
Iteration:  2750charge 0 multiplicity 1
 C         0.069247        -0.611970        -0.207677
 C         1.055550         0.470948        -0.591846
 C         0.407658         1.439951        -1.670083
 C         1.289659         1.896096        -2.787042
 O         2.103426         3.084771        -2.511803
 C         2.822355         1.875731        -2.708031
 C         3.534274         1.353556        -1.494237
 C         2.586926         0.492843        -0.644485
 O         1.811397         1.279205         0.351218
 H         0.004320        -1.481903        -0.950622
 H         0.151687        -0.896389         0.784508
 H        -0.904503        -0.099975        -0.349979
 H        -0.466973         0.889060        -2.118637
 H         0.098820         2.357872        -1.110841
 H         0.814543         1.951420        -3.701352
 H         3.361710         1.919048        -3.608356
 H         4.461067         0.854062        -1.544448
 H         3.691043         2.226004        -0.778209
 H         3.003662        -0.405827        -0.205353
