19
Iteration:  1029
 C         0.119146        -0.509286        -0.032748
 C         1.075111         0.558792        -0.677012
 C         0.250713         1.618982        -1.540327
 C         1.206910         2.304675        -2.609069
 O         2.272084         3.200536        -2.328979
 C         2.654907         1.902803        -2.837300
 C         3.357159         1.138584        -1.760485
 C         2.544742         0.232100        -0.870386
 O         2.099194         0.921544         0.327459
 H        -0.394283        -0.034703         0.887892
 H        -0.651531        -0.907113        -0.768107
 H         0.741565        -1.352099         0.344724
 H        -0.549878         1.125244        -2.055260
 H        -0.075795         2.272938        -0.789681
 H         0.613726         2.721655        -3.418119
 H         2.999382         1.836390        -3.955847
 H         4.271673         0.570166        -2.131443
 H         3.790198         1.840419        -0.968990
 H         2.861874        -0.846113        -0.585014
