19
Iteration:  3376charge 0 multiplicity 1
 C         0.108405        -0.590765        -0.323086
 C         1.088901         0.500273        -0.683480
 C         0.617056         1.679936        -1.526151
 C         1.323646         1.890863        -2.866944
 O         2.079500         3.082608        -2.804371
 C         2.824147         1.770145        -2.706632
 C         3.286626         1.481322        -1.318895
 C         2.512337         0.429092        -0.521821
 O         1.823553         1.031388         0.505759
 H        -0.027926        -1.302035        -1.186526
 H         0.466323        -1.106455         0.611147
 H        -0.902417        -0.223046        -0.121509
 H        -0.522471         1.604708        -1.896736
 H         0.684513         2.586187        -0.956456
 H         0.862862         1.879630        -3.837243
 H         3.456511         1.506471        -3.570566
 H         4.343055         1.520621        -1.255179
 H         3.011230         2.427019        -0.808855
 H         3.084755        -0.515779        -0.233969
