19
Iteration:  1552
 C         0.003933        -0.430449        -0.076330
 C         1.066903         0.552434        -0.637337
 C         0.511977         1.217928        -1.845577
 C         1.313240         2.083451        -2.751938
 O         2.054429         3.194256        -2.229008
 C         2.706425         1.973009        -2.737557
 C         3.456826         1.094771        -1.762539
 C         2.570451         0.440346        -0.620225
 O         1.945641         1.251933         0.406325
 H        -1.012787        -0.484815        -0.517017
 H         0.408687        -1.366126        -0.006793
 H        -0.163025        -0.084570         0.910198
 H         0.423596         0.299586        -2.467943
 H        -0.479770         1.681714        -1.723626
 H         0.690987         2.289802        -3.714965
 H         3.327134         2.095148        -3.763746
 H         3.952555         0.277213        -2.334477
 H         4.280777         1.575433        -1.221533
 H         3.053615        -0.445829        -0.197333
