19
Iteration:  4171charge 0 multiplicity 1
 C         0.167113        -0.664914        -0.138309
 C         0.975468         0.535829        -0.670674
 C         0.425435         1.491089        -1.662747
 C         1.389253         1.922827        -2.766096
 O         2.164964         3.147446        -2.629953
 C         2.879908         1.880015        -2.719747
 C         3.435717         1.381647        -1.393880
 C         2.449487         0.447554        -0.647488
 O         1.743581         1.191388         0.359425
 H         0.164696        -1.557550        -0.820161
 H         0.673140        -1.147267         0.770690
 H        -0.768492        -0.447309         0.184760
 H        -0.486132         1.161185        -2.114063
 H         0.175239         2.513318        -1.195517
 H         0.793278         1.838475        -3.715302
 H         3.391502         1.681015        -3.634188
 H         4.406369         0.813058        -1.570373
 H         3.560154         2.364152        -0.761426
 H         2.921129        -0.422850        -0.227287
