19
Iteration:  4990
 C         0.299402        -0.616294        -0.159753
 C         1.008129         0.559504        -0.752589
 C         0.391902         1.447985        -1.841895
 C         1.321124         2.008392        -2.814207
 O         2.140491         3.162954        -2.386333
 C         2.795403         1.893589        -2.638799
 C         3.407146         1.054059        -1.499932
 C         2.577428         0.488039        -0.493440
 O         1.677183         1.347126         0.295072
 H         0.070669        -1.419789        -0.931373
 H         0.847009        -0.968062         0.721119
 H        -0.622666        -0.244218         0.362182
 H        -0.416085         0.838129        -2.395508
 H        -0.010682         2.218549        -1.315653
 H         0.889187         2.141157        -3.731919
 H         3.420605         1.770053        -3.508125
 H         4.076498         0.331073        -1.874962
 H         4.131146         1.677303        -0.964406
 H         2.956335        -0.374284         0.113364
