19
Iteration:  4528charge 0 multiplicity 1
 C         0.039544        -0.704984        -0.321930
 C         1.039882         0.544114        -0.599148
 C         0.430774         1.587730        -1.613487
 C         1.345706         1.918391        -2.843558
 O         2.174951         3.116942        -2.699707
 C         2.792955         1.777288        -2.676892
 C         3.422083         1.481341        -1.415414
 C         2.519675         0.526659        -0.583594
 O         1.885528         1.097181         0.489801
 H         0.444692        -1.662068        -0.535107
 H        -0.047787        -0.905225         0.764458
 H        -1.027612        -0.739356        -0.604351
 H        -0.512728         1.438751        -1.977592
 H         0.103212         2.583667        -1.007897
 H         0.788099         1.883563        -3.740995
 H         3.387968         1.630393        -3.561364
 H         4.437657         0.923813        -1.431534
 H         3.478056         2.472874        -0.841686
 H         2.937678        -0.477072        -0.452718
