19
Iteration:  3936
 C         0.144855        -0.458627         0.059479
 C         1.099913         0.506572        -0.694357
 C         0.500111         1.013382        -2.077841
 C         1.374117         2.156705        -2.773060
 O         2.145018         3.083085        -1.999575
 C         2.789805         1.993487        -2.711228
 C         3.334834         0.973105        -1.699376
 C         2.538263         0.574309        -0.514871
 O         1.691282         1.500687         0.144213
 H        -0.160734        -1.310701        -0.467750
 H         0.699834        -0.853536         0.911597
 H        -0.684803         0.153517         0.459312
 H         0.537292         0.127116        -2.893506
 H        -0.518871         1.308963        -2.010956
 H         0.916282         2.591516        -3.645286
 H         3.467095         2.145015        -3.609404
 H         3.805746         0.185918        -2.263622
 H         4.167806         1.634449        -1.332681
 H         3.038777        -0.272376         0.092496
