19
Iteration:   638charge 0 multiplicity 1
 C         0.131825        -0.369350         0.075069
 C         1.044515         0.520190        -0.725568
 C         0.344151         1.511041        -1.662820
 C         1.216900         2.163907        -2.673464
 O         2.186959         3.182836        -2.059969
 C         2.693681         1.991350        -2.688254
 C         3.424696         1.033813        -1.835315
 C         2.463754         0.249242        -0.955279
 O         2.073443         1.048573         0.214859
 H        -0.262644         0.144982         1.030973
 H        -0.618429        -0.834382        -0.599935
 H         0.698768        -1.182499         0.440238
 H        -0.546953         0.946958        -2.274531
 H        -0.193619         2.328709        -1.050250
 H         0.808670         2.598318        -3.571493
 H         3.186800         2.095709        -3.595075
 H         3.898469         0.368533        -2.623790
 H         4.229868         1.494890        -1.237503
 H         2.845258        -0.724664        -0.793215
