19
Iteration:  1306
 C         0.263323        -0.525596        -0.119227
 C         1.060673         0.571335        -0.685712
 C         0.354438         1.492513        -1.643944
 C         1.236221         2.176606        -2.683779
 O         2.247601         3.152134        -2.161391
 C         2.676501         1.855672        -2.757777
 C         3.370004         0.947883        -1.838060
 C         2.530088         0.434811        -0.660810
 O         1.873054         1.265800         0.295496
 H        -0.857037        -0.390509        -0.165072
 H         0.490543        -1.368344        -0.876279
 H         0.515047        -0.741662         0.888273
 H        -0.499626         0.835112        -2.181443
 H        -0.171983         2.227313        -1.017264
 H         0.772570         2.466233        -3.605466
 H         3.182326         1.965244        -3.816876
 H         3.743853         0.086510        -2.439436
 H         4.201965         1.559442        -1.384408
 H         2.840519        -0.612257        -0.256137
