19
Iteration:  2322
 C         0.241252        -0.545452        -0.137693
 C         1.030846         0.602000        -0.641202
 C         0.421510         1.116599        -1.934276
 C         1.344991         2.058135        -2.670835
 O         2.179464         3.018083        -2.085193
 C         2.829359         1.914884        -2.689741
 C         3.407384         1.005886        -1.666088
 C         2.504775         0.634699        -0.564003
 O         1.673903         1.597283         0.146141
 H         0.334633        -1.445665        -0.761634
 H         0.509239        -0.813026         0.937552
 H        -0.846419        -0.419886        -0.060279
 H         0.068131         0.280053        -2.560868
 H        -0.457371         1.823225        -1.544822
 H         0.907087         2.299277        -3.675378
 H         3.403013         1.991034        -3.631024
 H         3.555330         0.028769        -2.239854
 H         4.431210         1.290736        -1.292968
 H         3.113890        -0.157657         0.117946
