19
Iteration:  2365charge 0 multiplicity 1
 C         0.224053        -0.447802        -0.068131
 C         1.082888         0.557617        -0.743983
 C         0.357781         1.232889        -1.950568
 C         1.380282         1.959920        -2.807293
 O         2.041259         3.073328        -2.192355
 C         2.829752         1.891181        -2.629419
 C         3.428274         1.152153        -1.598536
 C         2.518600         0.476539        -0.554664
 O         1.793093         1.425480         0.243972
 H         0.295601        -1.361244        -0.608820
 H         0.408790        -0.642189         1.036051
 H        -0.763926        -0.037763        -0.035405
 H        -0.146960         0.498071        -2.540737
 H        -0.427555         1.977318        -1.475244
 H         0.992192         2.238574        -3.758753
 H         3.526132         2.237741        -3.399050
 H         3.825781         0.241542        -2.108316
 H         4.359032         1.612380        -1.188176
 H         2.756795        -0.463336         0.096214
