19
Iteration:  3291
 C         0.244773        -0.669991        -0.562363
 C         1.074990         0.578427        -0.687081
 C         0.659604         1.764507        -1.462852
 C         1.315578         1.849637        -2.896320
 O         2.042537         3.045020        -2.847957
 C         2.687757         1.726873        -2.735261
 C         3.353985         1.420937        -1.247445
 C         2.556516         0.512937        -0.372512
 O         1.695805         1.137541         0.590276
 H        -0.285332        -0.971140        -1.418666
 H         0.899988        -1.380684        -0.323305
 H        -0.480506        -0.573119         0.265613
 H        -0.422851         1.751218        -1.515217
 H         1.050858         2.589123        -1.028568
 H         0.770978         1.604070        -3.804476
 H         3.217481         1.271143        -3.573615
 H         4.296462         0.861013        -1.262336
 H         3.381156         2.435043        -0.854896
 H         3.068790        -0.565363        -0.189688
