19
Iteration:  4445
 C         0.223892        -0.541996        -0.380268
 C         1.023533         0.575106        -0.623930
 C         0.413836         1.423821        -1.680628
 C         1.352619         1.923619        -2.748036
 O         2.096486         3.042357        -2.380339
 C         2.830032         1.801622        -2.748003
 C         3.470293         1.208637        -1.521530
 C         2.513444         0.568651        -0.529482
 O         1.734905         1.367488         0.400059
 H         0.191878        -1.147287        -1.345664
 H         0.586100        -1.253573         0.441729
 H        -0.859985        -0.387337        -0.216012
 H        -0.355252         0.729962        -2.178433
 H        -0.003028         2.203993        -1.188138
 H         0.870149         1.988002        -3.776241
 H         3.154955         1.763233        -3.775626
 H         4.222285         0.529004        -1.801690
 H         4.009636         1.975842        -1.016646
 H         2.984438        -0.320663        -0.057672
