19
Iteration:  3404charge 0 multiplicity 1
 C         0.122998        -0.672644        -0.368510
 C         1.037714         0.584767        -0.583956
 C         0.399911         1.666291        -1.499162
 C         1.356208         1.758365        -2.754061
 O         2.154544         3.134926        -2.913090
 C         2.774300         1.930680        -2.652133
 C         3.545236         1.407798        -1.405527
 C         2.524828         0.560628        -0.502041
 O         1.702297         1.003483         0.531112
 H         0.075943        -1.259029        -1.300176
 H         0.660514        -1.241438         0.477289
 H        -0.887859        -0.378109        -0.132723
 H        -0.507248         1.393298        -1.874969
 H         0.486307         2.741460        -0.996809
 H         0.785658         1.768121        -3.765182
 H         3.326986         1.439116        -3.467346
 H         4.401116         0.784750        -1.885305
 H         3.969632         2.273972        -0.865251
 H         2.878016        -0.426271        -0.286317
