19
Iteration:  1461charge 0 multiplicity 1
 C         0.178867        -0.529794        -0.016141
 C         1.061413         0.577092        -0.577166
 C         0.456236         1.214496        -1.884852
 C         1.334065         2.161734        -2.711600
 O         2.164110         3.118766        -2.083562
 C         2.764342         1.977015        -2.738951
 C         3.294959         0.966721        -1.790527
 C         2.494350         0.489207        -0.684849
 O         1.861892         1.417951         0.241569
 H         0.551338        -1.504981        -0.218387
 H         0.095634        -0.546719         1.036904
 H        -0.840521        -0.329285        -0.574421
 H         0.198093         0.250547        -2.460339
 H        -0.416986         1.747770        -1.607316
 H         0.834711         2.571828        -3.601486
 H         3.270411         2.100499        -3.761264
 H         3.493604         0.065043        -2.365105
 H         4.288961         1.199367        -1.408143
 H         3.137368        -0.259553        -0.097855
