19
Iteration:  4070
 C         0.378722        -0.653276        -0.258040
 C         1.040038         0.551973        -0.689568
 C         0.413975         1.546167        -1.676969
 C         1.274064         1.972829        -2.805013
 O         2.188875         3.073658        -2.495004
 C         2.765232         1.755395        -2.719776
 C         3.444241         1.279344        -1.463149
 C         2.540999         0.487621        -0.542825
 O         1.612291         1.286917         0.375238
 H        -0.208762        -1.195777        -1.019184
 H         1.013324        -1.192916         0.345723
 H        -0.431684        -0.364125         0.354329
 H        -0.623176         1.282007        -2.138529
 H         0.215229         2.424738        -1.098595
 H         0.677361         2.080859        -3.767475
 H         3.320435         1.754821        -3.682348
 H         4.245050         0.649303        -1.895695
 H         3.881612         2.045399        -0.791834
 H         2.838588        -0.389803         0.081312
