19
Iteration:  2060charge 0 multiplicity 1
 C         0.115503        -0.416240         0.212546
 C         1.082537         0.422989        -0.775682
 C         0.371200         1.103172        -2.071305
 C         1.385851         2.076899        -2.839082
 O         2.059864         3.108597        -2.140912
 C         2.881405         2.010210        -2.618450
 C         3.504542         1.149214        -1.547798
 C         2.536902         0.445099        -0.686714
 O         1.719005         1.381047         0.112210
 H        -0.546136        -1.188872        -0.172284
 H         0.684058        -0.644151         1.235271
 H        -0.497765         0.385512         0.644489
 H         0.122535         0.209915        -2.818188
 H        -0.558182         1.576294        -1.774031
 H         0.938041         2.432823        -3.807821
 H         3.539338         2.319356        -3.390932
 H         4.179688         0.349506        -1.904268
 H         4.118954         1.716099        -0.836326
 H         3.055068        -0.338693        -0.194319
