19
Iteration:  2127charge 0 multiplicity 1
 C         0.176055        -0.534925        -0.241837
 C         1.101308         0.615077        -0.704931
 C         0.414781         1.254649        -1.819883
 C         1.343481         1.931494        -2.759590
 O         2.062308         3.064073        -2.195716
 C         2.768325         1.888645        -2.713470
 C         3.504928         1.033778        -1.560786
 C         2.595524         0.629933        -0.526263
 O         1.702297         1.471014         0.259414
 H         0.120014        -1.326372        -1.077168
 H         0.653858        -0.990140         0.768682
 H        -0.888498        -0.158183         0.003332
 H        -0.401572         0.502888        -2.230047
 H        -0.087342         2.077581        -1.325986
 H         0.800502         2.154485        -3.771411
 H         3.428132         1.935698        -3.594790
 H         3.971122         0.135522        -2.029139
 H         4.387980         1.611467        -1.266307
 H         2.962488        -0.171896         0.040986
