19
Iteration:   326
 C         0.180852        -0.333753         0.143892
 C         1.019108         0.416456        -0.829867
 C         0.385726         1.437699        -1.667027
 C         1.224578         2.262723        -2.657540
 O         2.147011         3.116433        -1.994642
 C         2.747360         2.012138        -2.715224
 C         3.428621         0.958641        -1.857987
 C         2.538429         0.259329        -0.873388
 O         1.959000         1.146176         0.088496
 H         0.696871        -1.181065         0.476400
 H        -0.022973         0.271009         1.051686
 H        -0.895213        -0.605012        -0.285601
 H        -0.390906         0.858457        -2.332137
 H        -0.268976         2.187281        -1.127573
 H         0.589984         2.776796        -3.375047
 H         3.236466         2.426292        -3.549730
 H         3.976327         0.230040        -2.493610
 H         4.221081         1.485413        -1.362669
 H         2.909632        -0.671664        -0.408615
