19
Iteration:  3964
 C         0.190735        -0.397752         0.010731
 C         1.026113         0.623579        -0.722928
 C         0.382563         1.079412        -1.985035
 C         1.389499         2.052740        -2.715706
 O         2.016751         3.045140        -2.014449
 C         2.840726         1.967443        -2.564912
 C         3.524644         1.006883        -1.606496
 C         2.518146         0.448365        -0.700050
 O         1.751873         1.535623         0.036437
 H         0.381775        -1.428242        -0.491434
 H         0.601955        -0.602220         1.072291
 H        -0.807360        -0.022372         0.265272
 H         0.263237         0.276173        -2.637002
 H        -0.708937         1.441885        -1.837669
 H         1.043027         2.215908        -3.773851
 H         3.394643         2.237415        -3.455964
 H         4.088727         0.286297        -2.266864
 H         4.295535         1.528360        -1.037024
 H         2.711328        -0.434604        -0.162331
