19
Iteration:  4811charge 0 multiplicity 1
 C         0.238026        -0.754357        -0.157431
 C         0.992069         0.541740        -0.662653
 C         0.337565         1.462816        -1.744177
 C         1.376541         1.995597        -2.826720
 O         2.142202         3.117769        -2.396022
 C         2.845234         1.896014        -2.674708
 C         3.469653         1.130067        -1.557048
 C         2.464238         0.546048        -0.543383
 O         1.751246         1.395617         0.338043
 H         0.068695        -1.178557        -1.108459
 H         0.888726        -1.308042         0.572526
 H        -0.758704        -0.404175         0.323309
 H        -0.513693         0.829621        -2.330802
 H        -0.243237         2.355687        -1.417401
 H         0.971681         2.128668        -3.843349
 H         3.469770         1.927723        -3.641331
 H         4.045168         0.320870        -1.909565
 H         4.178253         1.781280        -1.023987
 H         2.952546        -0.328886        -0.085540
