19
Iteration:  4866
 C        -0.014914        -0.411678         0.094449
 C         1.055677         0.484967        -0.734520
 C         0.520439         1.043936        -2.015798
 C         1.361832         2.053325        -2.802650
 O         2.033129         3.150869        -2.093600
 C         2.831849         2.078369        -2.667072
 C         3.493343         1.094563        -1.633726
 C         2.581853         0.433511        -0.599446
 O         1.788743         1.382233         0.164896
 H        -0.434013        -1.209473        -0.461961
 H         0.702460        -0.994532         0.718599
 H        -0.798241         0.305029         0.485461
 H         0.058482         0.222455        -2.673020
 H        -0.349650         1.594628        -1.740889
 H         0.967415         2.518439        -3.700082
 H         3.482360         2.325405        -3.564400
 H         3.861642         0.269035        -2.167496
 H         4.298574         1.598276        -1.099216
 H         3.134276        -0.330302        -0.018079
