19
Iteration:  4539charge 0 multiplicity 1
 C         0.093882        -0.644397        -0.359405
 C         1.033535         0.543266        -0.641557
 C         0.427488         1.625746        -1.562028
 C         1.312827         1.861438        -2.787361
 O         2.125437         3.052288        -2.663690
 C         2.811524         1.819660        -2.736785
 C         3.395575         1.472564        -1.354063
 C         2.551146         0.466540        -0.617419
 O         1.866204         1.111179         0.484835
 H         0.348329        -1.601307        -0.771729
 H        -0.016453        -0.556242         0.722386
 H        -0.803920        -0.270929        -0.810987
 H        -0.402371         1.140888        -1.898496
 H         0.287892         2.705280        -1.111205
 H         0.951215         1.763133        -3.783482
 H         3.363233         1.504830        -3.610637
 H         4.500811         1.195738        -1.548245
 H         3.432715         2.390180        -0.685599
 H         2.999141        -0.488288        -0.328912
