19
Iteration:  3239
 C         0.224525        -0.677357        -0.472105
 C         0.998315         0.616495        -0.607796
 C         0.370168         1.739556        -1.497113
 C         1.336845         1.900941        -2.691042
 O         2.192609         3.041834        -2.984375
 C         2.736919         1.728679        -2.646833
 C         3.437799         1.522346        -1.294658
 C         2.504122         0.515567        -0.553885
 O         1.815247         1.006436         0.584882
 H         0.303800        -1.288364        -1.415930
 H         0.613145        -1.212069         0.413357
 H        -0.929702        -0.497268        -0.343038
 H        -0.570795         1.529316        -1.919050
 H         0.361853         2.707587        -0.924701
 H         0.843954         1.489893        -3.591662
 H         3.260964         1.308036        -3.487721
 H         4.535587         1.197122        -1.287738
 H         3.303469         2.438141        -0.741265
 H         2.886901        -0.460563        -0.544349
