19
Iteration:  3492
 C         0.213627        -0.613673        -0.214938
 C         1.076868         0.558099        -0.631406
 C         0.370447         1.457210        -1.719586
 C         1.355964         1.971443        -2.835521
 O         2.151606         3.209075        -2.628472
 C         2.789066         1.922534        -2.663368
 C         3.418473         1.219202        -1.485320
 C         2.550179         0.429699        -0.500715
 O         1.716618         1.210708         0.443977
 H        -0.000896        -1.314516        -0.993269
 H         0.744963        -1.104608         0.647750
 H        -0.738520        -0.358371         0.140089
 H        -0.444747         0.971904        -2.141134
 H        -0.208711         2.328826        -1.149968
 H         0.985203         2.057038        -3.897125
 H         3.295586         1.631755        -3.594108
 H         4.216158         0.577571        -1.958585
 H         3.999678         1.836733        -0.770294
 H         2.999636        -0.524810        -0.113258
