19
Iteration:  2415
 C         0.116198        -0.499464        -0.000312
 C         1.063830         0.437592        -0.697357
 C         0.414948         1.241520        -1.903548
 C         1.363301         1.999547        -2.834151
 O         2.159631         3.228213        -2.464742
 C         2.791585         1.990260        -2.663269
 C         3.409240         1.217968        -1.509953
 C         2.510815         0.467472        -0.552741
 O         1.793828         1.253672         0.336737
 H        -0.662125        -1.020898        -0.636235
 H         0.708493        -1.264219         0.616995
 H        -0.359468         0.131461         0.810384
 H        -0.120504         0.431336        -2.534862
 H        -0.312535         1.908274        -1.557105
 H         1.007632         1.987840        -3.893372
 H         3.404955         1.985890        -3.589592
 H         4.208257         0.561568        -1.828424
 H         3.928821         1.800295        -0.755109
 H         2.939572        -0.337903        -0.042800
