19
Iteration:  3408charge 0 multiplicity 1
 C         0.153886        -0.658188        -0.392008
 C         1.002631         0.574819        -0.579345
 C         0.388648         1.697487        -1.514194
 C         1.350480         1.779457        -2.774234
 O         2.151438         3.139936        -2.924752
 C         2.771640         1.926513        -2.638143
 C         3.557636         1.370747        -1.422860
 C         2.544332         0.565335        -0.474972
 O         1.713568         1.015333         0.562276
 H         0.169301        -1.259752        -1.384966
 H         0.727237        -1.289606         0.393312
 H        -0.885688        -0.390222        -0.066524
 H        -0.579140         1.239661        -1.936083
 H         0.329160         2.627593        -0.989456
 H         0.804041         1.741331        -3.662225
 H         3.290852         1.438310        -3.483557
 H         4.282255         0.726500        -1.866157
 H         3.987391         2.199907        -0.820366
 H         2.838029        -0.447207        -0.228463
