19
Iteration:  1579charge 0 multiplicity 1
 C         0.166746        -0.482581        -0.051856
 C         1.102350         0.518546        -0.669773
 C         0.416240         1.326096        -1.834373
 C         1.296471         2.122780        -2.826031
 O         2.065071         3.207272        -2.378971
 C         2.743037         1.975695        -2.673567
 C         3.383652         1.104521        -1.636697
 C         2.547582         0.327050        -0.586069
 O         1.888193         1.268192         0.387221
 H        -0.859180        -0.273900        -0.312700
 H         0.433038        -1.663863        -0.324041
 H         0.364142        -0.485232         1.120189
 H        -0.044652         0.561085        -2.468461
 H        -0.417457         2.070670        -1.474597
 H         0.824313         2.212478        -3.746350
 H         3.492310         2.159126        -3.378274
 H         3.834709         0.346071        -2.331748
 H         4.281611         1.494287        -1.112231
 H         3.002248        -0.578549        -0.150122
