19
Iteration:  4389charge 0 multiplicity 1
 C         0.183521        -0.544280         0.130448
 C         0.958527         0.488285        -0.677674
 C         0.477475         1.205930        -1.898806
 C         1.462204         2.006628        -2.822189
 O         2.126688         3.199382        -2.253217
 C         2.890569         2.077917        -2.612368
 C         3.476163         1.092796        -1.621137
 C         2.423656         0.423869        -0.677181
 O         1.621824         1.394739         0.175744
 H        -0.486940        -1.204838        -0.528698
 H         1.013825        -1.202709         0.692217
 H        -0.325424         0.037834         0.834098
 H         0.091206         0.262348        -2.500814
 H        -0.366807         1.670896        -1.609416
 H         0.988593         2.314898        -3.781167
 H         3.539147         2.173296        -3.455918
 H         4.026837         0.434697        -2.231589
 H         4.152732         1.647570        -1.067853
 H         2.953731        -0.495605        -0.353664
