19
Iteration:  2709
 C         0.182492        -0.536831        -0.036496
 C         1.042732         0.515486        -0.716705
 C         0.379127         1.281234        -1.882047
 C         1.302621         2.046590        -2.964731
 O         2.092431         3.211339        -2.500909
 C         2.829348         1.983978        -2.666884
 C         3.433998         1.166714        -1.441080
 C         2.486706         0.437966        -0.539543
 O         1.867495         1.239179         0.464945
 H        -0.216235        -1.265974        -0.806308
 H         0.688031        -1.137949         0.794115
 H        -0.689123         0.002657         0.354547
 H        -0.123420         0.539544        -2.373068
 H        -0.397847         1.975226        -1.417430
 H         0.975325         2.096545        -4.038103
 H         3.514459         2.054558        -3.468860
 H         4.189701         0.553755        -1.987650
 H         3.958968         1.891384        -0.844268
 H         2.894221        -0.507724        -0.057486
