19
Iteration:   163charge 0 multiplicity 1
 C         0.032709        -0.511306        -0.095815
 C         1.105140         0.421197        -0.660120
 C         0.453004         1.555951        -1.477872
 C         1.212676         2.199550        -2.636013
 O         2.147886         3.213006        -2.275087
 C         2.736212         2.032744        -2.734187
 C         3.381110         1.004977        -1.866037
 C         2.570090         0.308966        -0.761842
 O         1.989881         1.093198         0.275807
 H         0.366215        -1.232400         0.530989
 H        -0.637063         0.149816         0.484690
 H        -0.676135        -0.872038        -0.929476
 H        -0.488849         1.182045        -1.952692
 H         0.235928         2.379471        -0.851647
 H         0.758672         2.402470        -3.548509
 H         3.279048         2.156199        -3.657199
 H         3.546554         0.232992        -2.710212
 H         4.406242         1.225059        -1.622380
 H         3.159573        -0.524330        -0.356266
