19
Iteration:  1364
 C         0.186957        -0.515928         0.000686
 C         1.011525         0.503748        -0.751097
 C         0.377520         1.503068        -1.695861
 C         1.291877         2.145697        -2.732486
 O         2.137211         3.194550        -2.383359
 C         2.766411         2.008342        -2.700856
 C         3.417896         1.040575        -1.640717
 C         2.456264         0.308604        -0.696733
 O         1.940407         1.174016         0.323034
 H         0.326238        -0.194074         0.970998
 H        -0.801978        -0.509684        -0.200108
 H         0.565166        -1.579168        -0.214097
 H        -0.360492         0.925080        -2.290999
 H        -0.160801         2.260211        -1.045690
 H         0.738376         2.248182        -3.740062
 H         3.261328         1.945418        -3.759223
 H         4.073846         0.323582        -2.268616
 H         4.156826         1.528730        -0.938294
 H         2.897820        -0.624712        -0.334256
