19
Iteration:  4712charge 0 multiplicity 1
 C         0.171635        -0.593015        -0.225166
 C         1.069422         0.536301        -0.766248
 C         0.482285         1.624366        -1.595946
 C         1.340683         1.900405        -2.835969
 O         2.115085         3.124995        -2.731459
 C         2.805875         1.862918        -2.716772
 C         3.404623         1.379593        -1.341613
 C         2.534733         0.430710        -0.520357
 O         1.736598         1.054016         0.451898
 H        -0.132077        -1.006001        -1.122168
 H         0.695319        -1.210113         0.459322
 H        -0.712297        -0.191405         0.381328
 H        -0.520044         1.290273        -2.019478
 H         0.245574         2.497553        -0.975276
 H         0.901154         1.878614        -3.792459
 H         3.418768         1.537937        -3.621420
 H         4.409327         1.060376        -1.393432
 H         3.461482         2.235376        -0.662048
 H         2.931016        -0.513878        -0.156553
