19
Iteration:  1531charge 0 multiplicity 1
 C         0.088160        -0.435005         0.045188
 C         1.072988         0.527837        -0.663152
 C         0.362017         1.192616        -1.866901
 C         1.307680         2.086318        -2.731495
 O         2.100294         3.091195        -2.088629
 C         2.798406         2.016365        -2.715867
 C         3.485604         1.076159        -1.731731
 C         2.561817         0.456189        -0.700280
 O         1.873412         1.335647         0.175673
 H        -0.712580        -0.614623        -0.737571
 H         0.432118        -1.422727         0.378770
 H        -0.380232         0.007929         0.859541
 H        -0.041817         0.419154        -2.513896
 H        -0.497295         1.798212        -1.383034
 H         0.786188         2.469302        -3.692962
 H         3.426756         2.200964        -3.708984
 H         4.040968         0.234730        -2.237469
 H         4.294486         1.588739        -1.151907
 H         2.992603        -0.405826        -0.218310
