19
Iteration:  3367
 C         0.129600        -0.582639        -0.331034
 C         1.075627         0.584686        -0.666997
 C         0.570970         1.646675        -1.589973
 C         1.303665         1.861033        -2.854314
 O         2.168775         3.135004        -2.829640
 C         2.749283         1.768096        -2.732878
 C         3.238265         1.499627        -1.281457
 C         2.604430         0.365574        -0.508750
 O         1.828150         1.009777         0.539876
 H        -0.010889        -1.269562        -1.120722
 H         0.428033        -1.163846         0.453018
 H        -0.832400        -0.138160        -0.056496
 H        -0.606355         1.434800        -1.636124
 H         0.612415         2.613520        -1.206015
 H         0.784634         1.778428        -3.798002
 H         3.414892         1.614465        -3.583010
 H         4.303237         1.547195        -1.125954
 H         2.849916         2.399655        -0.810465
 H         3.086735        -0.715567        -0.293384
