19
Iteration:  1101charge 0 multiplicity 1
 C         0.176389        -0.457514        -0.242180
 C         1.086228         0.565038        -0.601487
 C         0.393112         1.545634        -1.617319
 C         1.242561         2.210087        -2.587301
 O         2.147685         3.156627        -2.170601
 C         2.625231         1.886361        -2.802084
 C         3.330840         0.972284        -1.899237
 C         2.556162         0.308879        -0.695803
 O         2.043250         1.187726         0.381874
 H         0.563937        -1.009499         0.579366
 H        -0.805474        -0.073647        -0.143869
 H         0.180045        -1.243291        -1.141473
 H        -0.379482         0.901961        -2.123732
 H         0.013460         2.420601        -0.975812
 H         0.646516         2.458945        -3.543716
 H         2.979467         1.960197        -3.795267
 H         3.588347         0.098057        -2.436261
 H         4.268852         1.295437        -1.545408
 H         3.008832        -0.537711        -0.284322
