19
Iteration:   333
 C         0.128980        -0.358513         0.135345
 C         1.089454         0.434123        -0.795612
 C         0.376842         1.456129        -1.684547
 C         1.273453         2.225919        -2.610962
 O         2.145911         3.132621        -2.027331
 C         2.700674         2.033802        -2.686801
 C         3.417546         0.941670        -1.902317
 C         2.559281         0.268360        -0.802962
 O         1.905431         1.147342         0.063161
 H         0.649195        -1.321912         0.364775
 H        -0.101157         0.204686         1.076330
 H        -0.676107        -0.696958        -0.356987
 H        -0.445099         1.126482        -2.223176
 H        -0.008113         2.225092        -0.974158
 H         0.593005         2.691980        -3.463484
 H         3.314739         2.349727        -3.666363
 H         3.838942         0.237439        -2.635161
 H         4.365036         1.441163        -1.456605
 H         3.132789        -0.615699        -0.453288
