19
Iteration:  3606charge 0 multiplicity 1
 C         0.258657        -0.508504         0.078645
 C         0.967895         0.545322        -0.689201
 C         0.517635         1.022688        -2.092587
 C         1.449646         2.035924        -2.777191
 O         2.137414         3.161367        -2.009171
 C         2.913562         2.074720        -2.659346
 C         3.334230         0.930548        -1.778740
 C         2.416790         0.602381        -0.543952
 O         1.674097         1.544234         0.230545
 H        -0.059415        -1.377772        -0.616863
 H         0.911918        -0.885232         0.845482
 H        -0.719749        -0.076116         0.535281
 H         0.337265         0.159085        -2.708221
 H        -0.696525         1.332657        -2.063483
 H         0.889952         2.170893        -3.664175
 H         3.461513         2.231714        -3.591110
 H         3.327025         0.108394        -2.517955
 H         4.412928         1.013130        -1.437156
 H         2.885210        -0.235158        -0.150514
