19
Iteration:   282
 C         0.132824        -0.364148         0.072277
 C         1.086475         0.636997        -0.619447
 C         0.433907         1.334433        -1.760183
 C         1.230697         2.305241        -2.676016
 O         2.107934         3.179878        -1.967408
 C         2.732364         2.084360        -2.713726
 C         3.334140         0.851744        -1.948620
 C         2.443890         0.239555        -0.855617
 O         2.118649         1.136457         0.207388
 H         0.649011        -1.015473         0.741683
 H        -0.561164         0.302386         0.705264
 H        -0.556261        -1.037803        -0.690506
 H         0.163407         0.454602        -2.479852
 H        -0.591586         1.730187        -1.465003
 H         0.701592         2.669881        -3.559492
 H         3.176274         2.516512        -3.626536
 H         3.618038         0.093843        -2.715294
 H         4.307795         1.083340        -1.555045
 H         2.784879        -0.765853        -0.555019
