19
Iteration:  4742charge 0 multiplicity 1
 C         0.094071        -0.666054        -0.310503
 C         1.053160         0.626593        -0.606787
 C         0.359606         1.538513        -1.636222
 C         1.297583         1.952237        -2.803505
 O         2.216077         3.110021        -2.651199
 C         2.775651         1.762433        -2.734576
 C         3.441280         1.383809        -1.397360
 C         2.506429         0.549370        -0.595289
 O         1.880735         1.150663         0.546871
 H         0.464440        -1.194805        -1.272963
 H         0.259826        -1.331052         0.547970
 H        -0.984372        -0.446892        -0.468463
 H        -0.538641         0.862487        -2.115121
 H        -0.263466         2.262523        -1.152108
 H         0.910922         2.026150        -3.935234
 H         3.316883         1.337715        -3.670032
 H         4.370019         0.830280        -1.533229
 H         3.656599         2.272594        -0.791065
 H         2.969081        -0.403693        -0.314323
