19
Iteration:   376charge 0 multiplicity 1
 C         0.251101        -0.538788        -0.187136
 C         1.071802         0.678934        -0.533980
 C         0.373097         1.494173        -1.629545
 C         1.238737         2.319366        -2.591315
 O         2.236456         3.158549        -2.158317
 C         2.667232         1.949332        -2.803073
 C         3.242315         0.876444        -1.897129
 C         2.457574         0.310214        -0.741856
 O         2.048103         1.190380         0.347573
 H         0.948551        -1.205239         0.527163
 H        -0.777607        -0.449988         0.326113
 H         0.014292        -1.021902        -1.114802
 H        -0.191314         0.839671        -2.246024
 H        -0.414024         2.155883        -1.267751
 H         0.574652         2.561115        -3.520060
 H         3.024966         2.096937        -3.917428
 H         3.466692         0.032980        -2.561631
 H         4.340457         1.149864        -1.670643
 H         2.886600        -0.662852        -0.347337
