19
Iteration:  4482
 C         0.277172        -0.687082        -0.282272
 C         1.057612         0.532351        -0.681315
 C         0.430773         1.579984        -1.627929
 C         1.310900         2.029217        -2.804893
 O         2.148700         3.163657        -2.687914
 C         2.755622         1.815951        -2.672667
 C         3.453671         1.245254        -1.440820
 C         2.476105         0.503454        -0.482458
 O         1.700887         1.191289         0.457671
 H         0.785439        -1.491044        -0.765585
 H         0.364860        -0.882120         0.733310
 H        -0.828970        -0.651442        -0.638051
 H        -0.556708         1.344585        -1.954336
 H         0.226446         2.580192        -1.120284
 H         0.933699         1.871580        -3.808062
 H         3.362185         1.507438        -3.590436
 H         4.137904         0.456708        -1.848943
 H         4.021286         1.939480        -0.738600
 H         2.850209        -0.433777        -0.069839
