19
Iteration:  4775charge 0 multiplicity 1
 C         0.301639        -0.598928        -0.269980
 C         1.098292         0.564255        -0.680355
 C         0.468528         1.560525        -1.623152
 C         1.335400         1.975885        -2.815929
 O         2.122532         3.190359        -2.602648
 C         2.805175         1.825446        -2.706843
 C         3.400087         1.160464        -1.487619
 C         2.513392         0.508270        -0.512153
 O         1.619948         1.221450         0.470919
 H         0.547963        -1.474641        -0.981014
 H         0.472122        -1.086356         0.659036
 H        -0.795577        -0.524221        -0.458229
 H        -0.457342         0.943902        -1.936009
 H         0.254203         2.373226        -0.980452
 H         0.713271         1.898495        -3.840752
 H         3.276682         1.587312        -3.727334
 H         4.040449         0.362241        -1.851213
 H         4.067941         1.886787        -0.990591
 H         2.962364        -0.351186        -0.022581
