19
Iteration:   480
 C         0.146231        -0.337994        -0.016372
 C         1.080078         0.597080        -0.681540
 C         0.369533         1.531408        -1.657974
 C         1.193285         2.273870        -2.723162
 O         2.147870         3.219374        -2.131782
 C         2.644973         2.009899        -2.738629
 C         3.379439         0.988790        -1.893657
 C         2.503090         0.190900        -0.923654
 O         2.140507         0.903044         0.446965
 H        -0.511488         0.240053         0.473887
 H        -0.410766        -0.915679        -0.671205
 H         0.659230        -0.918033         0.835594
 H        -0.089334         0.762426        -2.316267
 H        -0.313654         2.194043        -1.104956
 H         0.607517         2.537797        -3.604265
 H         3.004034         2.148097        -3.739617
 H         3.803774         0.377823        -2.742892
 H         4.112011         1.539324        -1.308833
 H         2.775307        -0.831449        -0.622328
