19
Iteration:  1647
 C         0.257408        -0.606592        -0.159701
 C         1.071303         0.583501        -0.682841
 C         0.359718         1.330398        -1.870334
 C         1.323281         2.140750        -2.742610
 O         2.129592         3.172608        -2.295772
 C         2.710918         1.739373        -2.750174
 C         3.439285         1.083573        -1.655601
 C         2.578210         0.539049        -0.492611
 O         1.756787         1.388528         0.400533
 H        -0.118797        -0.414433         0.882720
 H        -0.597470        -0.737981        -0.892286
 H         0.923499        -1.653296        -0.077439
 H        -0.095431         0.565664        -2.598476
 H        -0.444117         1.968391        -1.380577
 H         0.871188         2.404413        -3.644916
 H         3.245941         1.753744        -3.597569
 H         3.847978         0.174282        -2.131640
 H         4.318400         1.723642        -1.456456
 H         3.020107        -0.324401         0.086075
