19
Iteration:  3658
 C         0.187788        -0.433934        -0.153853
 C         1.055782         0.568241        -0.741431
 C         0.348605         1.229364        -1.885281
 C         1.326943         1.980862        -2.692721
 O         2.093401         3.083194        -2.217478
 C         2.812999         1.833393        -2.615266
 C         3.473458         1.143014        -1.504064
 C         2.544761         0.518553        -0.628740
 O         1.795074         1.391528         0.166277
 H         0.052679        -1.366616        -0.728758
 H         0.514413        -0.592281         0.807127
 H        -0.769782         0.016409        -0.084036
 H        -0.332461         0.573464        -2.409397
 H        -0.333500         1.866146        -1.444546
 H         0.791576         2.054880        -3.681560
 H         3.489508         2.112431        -3.418673
 H         4.124379         0.379825        -1.977769
 H         4.147832         1.809736        -0.900378
 H         3.131699        -0.373118        -0.076025
