19
Iteration:  4202charge 0 multiplicity 1
 C         0.236349        -0.642208        -0.233242
 C         1.058414         0.608568        -0.690257
 C         0.423330         1.426242        -1.757460
 C         1.327081         1.988018        -2.921720
 O         2.119547         3.202427        -2.645187
 C         2.763048         1.921823        -2.622272
 C         3.475258         1.166663        -1.451478
 C         2.551376         0.523572        -0.401406
 O         1.687644         1.222410         0.498240
 H        -0.046650        -1.362499        -1.077549
 H         0.771955        -1.318013         0.475190
 H        -0.653039        -0.381322         0.275819
 H        -0.490960         0.865568        -2.185979
 H         0.105366         2.349900        -1.400813
 H         0.747786         2.059756        -3.890352
 H         3.456005         1.796599        -3.456329
 H         3.798306         0.293503        -2.004141
 H         4.338599         1.527940        -0.890827
 H         3.072055        -0.384087         0.050591
