19
Iteration:  2421charge 0 multiplicity 1
 C         0.148047        -0.466453        -0.066966
 C         1.059871         0.492341        -0.681293
 C         0.443782         1.221993        -1.888084
 C         1.312626         1.982593        -2.841605
 O         2.163484         3.183349        -2.450328
 C         2.755324         1.937313        -2.644382
 C         3.470248         1.249575        -1.492503
 C         2.489419         0.456839        -0.582187
 O         1.769409         1.250963         0.340470
 H        -0.748753        -0.902438        -0.521063
 H         0.775498        -1.196529         0.391484
 H        -0.376234         0.017773         0.740126
 H        -0.100564         0.480094        -2.447178
 H        -0.274156         1.987469        -1.372484
 H         0.944867         2.127044        -3.883675
 H         3.477899         1.991086        -3.458708
 H         4.258273         0.556302        -1.903861
 H         4.006807         2.032088        -0.882704
 H         2.993913        -0.384155         0.065131
