19
Iteration:   144charge 0 multiplicity 1
 C        -0.014298        -0.393737        -0.136383
 C         1.106674         0.544975        -0.650887
 C         0.413034         1.556220        -1.500023
 C         1.226837         2.062219        -2.687184
 O         2.008026         3.221793        -2.221570
 C         2.746674         2.043186        -2.732848
 C         3.515214         0.974549        -1.854407
 C         2.570978         0.263223        -0.837432
 O         2.076920         1.050462         0.315938
 H         0.284999        -1.440518         0.196970
 H        -0.576227         0.074760         0.624434
 H        -0.650407        -0.520013        -0.912876
 H        -0.589151         1.290987        -1.700569
 H         0.335690         2.405878        -0.775764
 H         0.629839         2.282282        -3.593947
 H         3.270448         2.158855        -3.675555
 H         3.985109         0.193467        -2.426956
 H         4.292461         1.464833        -1.215665
 H         2.922032        -0.731813        -0.625969
