19
Iteration:  2835
 C         0.230345        -0.710929        -0.287722
 C         1.100035         0.494981        -0.643325
 C         0.384872         1.395711        -1.664878
 C         1.279485         2.044480        -2.743665
 O         2.194136         3.095234        -2.430207
 C         2.729663         1.783843        -2.762658
 C         3.519778         1.206869        -1.535597
 C         2.535925         0.533309        -0.469320
 O         1.678823         1.470325         0.328942
 H        -0.059683        -1.216082        -1.289532
 H         0.753084        -1.424890         0.303224
 H        -0.704852        -0.425126         0.285297
 H        -0.491375         0.893593        -2.261392
 H        -0.111934         2.105852        -1.038774
 H         0.760476         2.177159        -3.799582
 H         3.256092         1.741022        -3.813662
 H         4.211374         0.436507        -1.921789
 H         4.102103         2.090578        -1.057807
 H         2.992624        -0.252529         0.114006
