19
Iteration:  1479
 C         0.252768        -0.533321         0.083178
 C         0.975742         0.602116        -0.701889
 C         0.348866         1.269999        -1.917460
 C         1.337033         2.097493        -2.752597
 O         2.171249         3.153576        -2.046987
 C         2.779567         2.044273        -2.648915
 C         3.434806         0.898137        -1.813258
 C         2.457928         0.406728        -0.663384
 O         1.815788         1.436063         0.146959
 H         0.600157        -1.593077        -0.188293
 H         0.807130        -0.492112         1.189853
 H        -0.819626        -0.552313         0.121303
 H         0.061330         0.528941        -2.638405
 H        -0.518964         1.880513        -1.521795
 H         0.833084         2.378499        -3.653117
 H         3.453216         2.308577        -3.394942
 H         3.678790         0.029665        -2.470532
 H         4.389222         1.278822        -1.399846
 H         2.717243        -0.466462        -0.058411
