19
Iteration:   743charge 0 multiplicity 1
 C         0.333282        -0.629778        -0.275779
 C         1.037666         0.668983        -0.626384
 C         0.280229         1.709518        -1.484583
 C         1.161485         2.303816        -2.566516
 O         2.345911         3.075323        -2.178998
 C         2.591633         1.955139        -2.825702
 C         3.241677         0.879509        -1.888723
 C         2.475120         0.310264        -0.737019
 O         2.033605         1.161476         0.324123
 H        -0.655173        -0.727959        -0.110886
 H         0.438604        -1.203485        -1.121168
 H         1.005619        -1.028239         0.606406
 H        -0.650295         1.147168        -1.855848
 H         0.088353         2.504951        -0.746000
 H         0.681056         2.733627        -3.469128
 H         3.155947         2.053715        -3.898266
 H         3.565661         0.001999        -2.440161
 H         4.171778         1.277922        -1.459254
 H         2.718423        -0.767620        -0.351242
