19
Iteration:  4940charge 0 multiplicity 1
 C         0.131339        -0.415689        -0.015001
 C         1.008115         0.543117        -0.741445
 C         0.466639         1.061625        -1.977818
 C         1.330635         2.053175        -2.732897
 O         2.100866         3.098343        -2.045173
 C         2.835439         1.984650        -2.689581
 C         3.490815         1.081857        -1.688327
 C         2.512179         0.496178        -0.583972
 O         1.760924         1.459414         0.224477
 H         0.113874        -1.342662        -0.629363
 H         0.546281        -0.681845         0.991680
 H        -0.896961         0.075637         0.035202
 H         0.439139         0.201564        -2.641157
 H        -0.711046         1.376824        -1.891436
 H         0.848336         2.401180        -3.760953
 H         3.424090         2.201464        -3.638529
 H         3.864285         0.161371        -2.310623
 H         4.411734         1.553520        -1.213870
 H         2.904349        -0.372162        -0.039059
