19
Iteration:  1165
 C         0.277033        -0.515252         0.184055
 C         0.983656         0.476832        -0.748300
 C         0.371044         1.421884        -1.754223
 C         1.253190         2.307918        -2.692846
 O         2.236065         3.180530        -2.043117
 C         2.746410         2.056237        -2.652473
 C         3.389268         0.854070        -1.866853
 C         2.449341         0.311613        -0.858249
 O         1.874208         1.233973         0.104946
 H         0.733630        -1.509860         0.239347
 H         0.405464        -0.121767         1.188529
 H        -0.855514        -0.717877        -0.073751
 H        -0.335111         0.978223        -2.363634
 H        -0.145470         2.143213        -1.070965
 H         0.729472         2.734136        -3.615631
 H         3.372286         2.370896        -3.585666
 H         3.475255         0.183159        -2.761725
 H         4.371847         1.046357        -1.362942
 H         2.884970        -0.549220        -0.305415
