19
Iteration:  3182charge 0 multiplicity 1
 C         0.077812        -0.693918        -0.384450
 C         1.019803         0.495201        -0.576836
 C         0.526411         1.680400        -1.442072
 C         1.326142         1.860238        -2.782750
 O         2.116324         3.084364        -2.940773
 C         2.840562         1.846379        -2.713417
 C         3.457909         1.526961        -1.325860
 C         2.534274         0.517411        -0.555660
 O         1.745093         1.018665         0.549889
 H         0.025254        -1.315757        -1.295825
 H         0.351609        -1.338829         0.426526
 H        -0.969510        -0.154789        -0.116117
 H        -0.421945         1.458743        -1.931405
 H         0.358767         2.583870        -0.947384
 H         0.761061         1.673348        -3.717268
 H         3.364109         1.760013        -3.714047
 H         4.484484         1.042209        -1.578228
 H         3.771744         2.401378        -0.698771
 H         3.132074        -0.414418        -0.196375
