19
Iteration:  2889charge 0 multiplicity 1
 C         0.154572        -0.430192         0.109096
 C         1.008836         0.541527        -0.659466
 C         0.449324         1.249302        -1.967957
 C         1.479985         1.959042        -2.911896
 O         1.943712         3.150731        -2.249835
 C         2.854942         2.114363        -2.689106
 C         3.415750         1.123954        -1.594321
 C         2.559423         0.406336        -0.642993
 O         1.795530         1.233424         0.313280
 H         0.039493        -1.359133        -0.480847
 H         0.639099        -0.542373         1.014273
 H        -0.933793        -0.202569         0.306361
 H         0.179194         0.392623        -2.528219
 H        -0.374391         1.851162        -1.858442
 H         0.870879         2.325838        -3.876982
 H         3.680690         2.487571        -3.435642
 H         3.907916         0.263826        -2.079066
 H         4.133055         1.665034        -0.992708
 H         2.987556        -0.451059        -0.190457
