19
Iteration:  4607charge 0 multiplicity 1
 C         0.263123        -0.735306        -0.388085
 C         1.014260         0.620023        -0.590329
 C         0.499115         1.651660        -1.479741
 C         1.314990         1.950699        -2.744462
 O         2.205440         3.130378        -2.815755
 C         2.778396         1.767318        -2.790096
 C         3.418710         1.387767        -1.416477
 C         2.476243         0.498246        -0.554055
 O         1.648301         1.116218         0.552568
 H         0.014538        -1.232716        -1.375689
 H         0.994826        -1.456729         0.111126
 H        -0.627042        -0.506070         0.114286
 H        -0.431559         1.283139        -1.893504
 H         0.448942         2.606353        -0.824276
 H         0.758482         1.666863        -3.698069
 H         3.232100         1.496525        -3.688875
 H         4.349877         0.735007        -1.357095
 H         3.616922         2.362424        -0.918458
 H         2.837764        -0.438517        -0.094200
