19
Iteration:  4420
 C         0.217867        -0.581015        -0.133283
 C         1.037905         0.503692        -0.715844
 C         0.356189         1.370724        -1.879612
 C         1.318337         2.068942        -2.882139
 O         2.153884         3.145754        -2.396281
 C         2.797623         1.894729        -2.623083
 C         3.465348         1.125450        -1.500252
 C         2.570181         0.527019        -0.459159
 O         1.708628         1.333275         0.350861
 H        -0.309729        -1.197203        -0.906220
 H         0.864416        -1.376970         0.426237
 H        -0.597828        -0.278775         0.457907
 H        -0.104565         0.537971        -2.370593
 H        -0.381714         2.022262        -1.317311
 H         0.955097         2.207458        -3.890813
 H         3.321544         1.904484        -3.566826
 H         4.070735         0.379850        -2.080629
 H         4.232166         1.776475        -1.072274
 H         3.022047        -0.397711        -0.018710
