19
Iteration:  2382
 C         0.117573        -0.505349         0.037748
 C         0.976632         0.537893        -0.661491
 C         0.492094         1.221211        -1.875110
 C         1.370114         1.962694        -2.855400
 O         2.079629         3.209819        -2.333576
 C         2.852281         2.063129        -2.637537
 C         3.503309         1.073090        -1.586394
 C         2.521506         0.460514        -0.618897
 O         1.725335         1.317942         0.268203
 H         0.060265        -1.486941        -0.533279
 H         0.725915        -0.678831         0.979187
 H        -0.842299         0.024103         0.372032
 H        -0.105723         0.425007        -2.447246
 H        -0.270606         1.891273        -1.706302
 H         1.005976         1.990384        -3.918095
 H         3.380627         2.207848        -3.606202
 H         4.080023         0.354614        -2.163719
 H         4.131989         1.553944        -0.820261
 H         2.984652        -0.328881        -0.134439
