19
Iteration:   636charge 0 multiplicity 1
 C         0.121210        -0.372007         0.059880
 C         1.046303         0.519245        -0.728815
 C         0.353183         1.506468        -1.655819
 C         1.234875         2.178052        -2.663972
 O         2.185455         3.174339        -2.057520
 C         2.678596         1.991311        -2.699889
 C         3.420899         1.026737        -1.835503
 C         2.475865         0.245871        -0.927950
 O         2.066933         1.059876         0.196218
 H        -0.274618         0.174319         1.004850
 H        -0.665955        -0.830667        -0.569307
 H         0.769512        -1.279878         0.513843
 H        -0.510888         0.997683        -2.232144
 H        -0.253707         2.302985        -1.067698
 H         0.783460         2.632270        -3.540799
 H         3.155597         2.151268        -3.646374
 H         3.909449         0.367035        -2.645165
 H         4.238888         1.489571        -1.276138
 H         2.885721        -0.758746        -0.720211
