19
Iteration:  1911charge 0 multiplicity 1
 C         0.139915        -0.548761        -0.138542
 C         1.063332         0.627772        -0.645624
 C         0.364640         1.358528        -1.829407
 C         1.367724         1.918228        -2.862975
 O         2.022076         3.101048        -2.459421
 C         2.848886         1.896181        -2.663114
 C         3.427623         1.222805        -1.536009
 C         2.546328         0.562240        -0.531780
 O         1.839558         1.244707         0.427259
 H         0.119507        -1.336354        -0.962805
 H         0.508026        -1.076758         0.638872
 H        -0.872614        -0.065117         0.003456
 H        -0.240261         0.659215        -2.292348
 H        -0.229070         2.249302        -1.460984
 H         1.077546         1.806014        -3.900799
 H         3.575530         2.022312        -3.522298
 H         4.174051         0.456645        -1.866608
 H         4.069262         1.888680        -0.909689
 H         2.963743        -0.429308        -0.108721
