19
Iteration:  1000
 C         0.097227        -0.448986        -0.176083
 C         1.185841         0.589177        -0.582469
 C         0.441330         1.622045        -1.440215
 C         1.146887         2.227724        -2.629628
 O         2.174238         3.195541        -2.287985
 C         2.637956         1.972937        -2.776506
 C         3.352974         1.036986        -1.876012
 C         2.529217         0.245499        -0.848977
 O         2.079722         0.961318         0.378653
 H        -0.908188         0.085965        -0.165088
 H        -0.145510        -1.242570        -0.948015
 H         0.345145        -0.935675         0.693842
 H        -0.262497         0.890708        -2.007032
 H        -0.173794         2.295129        -0.772652
 H         0.551047         2.555092        -3.477931
 H         3.061902         1.980720        -3.841715
 H         3.855030         0.297401        -2.495853
 H         4.090602         1.509602        -1.275772
 H         2.877857        -0.746537        -0.582437
