19
Iteration:   191charge 0 multiplicity 1
 C         0.286164        -0.560766        -0.071280
 C         1.003340         0.592646        -0.638161
 C         0.340193         1.541027        -1.636824
 C         1.235213         2.397603        -2.590419
 O         2.310659         3.186148        -2.208769
 C         2.604658         1.927890        -2.787751
 C         3.361307         0.902372        -1.886141
 C         2.427380         0.284845        -0.805589
 O         1.971359         1.126586         0.343449
 H         0.932765        -1.015496         0.787347
 H        -0.705670        -0.257029         0.370257
 H         0.147883        -1.358428        -0.852751
 H        -0.332445         0.904473        -2.249745
 H        -0.376563         2.227595        -1.031655
 H         0.698505         2.811151        -3.548459
 H         3.207538         1.944071        -3.758893
 H         3.788544         0.109292        -2.489317
 H         4.210324         1.414258        -1.344536
 H         2.862268        -0.660523        -0.425466
