19
Iteration:  1052
 C         0.155277        -0.593256         0.028179
 C         1.003876         0.528870        -0.658253
 C         0.462476         1.620102        -1.493568
 C         1.265279         2.196392        -2.602980
 O         2.219002         3.313658        -2.357221
 C         2.678939         1.953435        -2.743251
 C         3.379133         1.072342        -1.783719
 C         2.458841         0.297330        -0.905420
 O         1.960109         0.996279         0.236469
 H         0.083657        -0.414574         1.188053
 H        -0.897685        -0.732724        -0.432938
 H         0.672174        -1.493374        -0.106760
 H        -0.405579         1.223325        -1.905519
 H         0.255898         2.429449        -0.857725
 H         0.705144         2.281291        -3.505841
 H         3.103678         1.937469        -3.849632
 H         4.016797         0.284061        -2.295938
 H         4.095363         1.596384        -1.077431
 H         2.702594        -0.823600        -0.709171
