19
Iteration:  3297
 C         0.261839        -0.640354        -0.531131
 C         1.078753         0.571135        -0.670026
 C         0.671238         1.741954        -1.474510
 C         1.243949         1.850551        -2.828170
 O         2.075652         3.012092        -2.867752
 C         2.749534         1.740631        -2.722724
 C         3.305661         1.429514        -1.256687
 C         2.543556         0.502313        -0.428365
 O         1.678851         1.134536         0.556320
 H        -0.273244        -0.992802        -1.470207
 H         0.952967        -1.599758        -0.340116
 H        -0.405502        -0.530213         0.330816
 H        -0.475350         1.875352        -1.545961
 H         0.960903         2.689187        -0.856332
 H         0.795174         1.589198        -3.798466
 H         3.460869         1.491719        -3.542572
 H         4.315175         0.995508        -1.404191
 H         3.470478         2.377629        -0.680492
 H         2.899853        -0.452095        -0.166665
