19
Iteration:  1645charge 0 multiplicity 1
 C         0.270734        -0.618720        -0.151091
 C         1.059686         0.581822        -0.686056
 C         0.361549         1.335903        -1.874723
 C         1.325004         2.129954        -2.741318
 O         2.131741         3.170831        -2.283933
 C         2.704681         1.723719        -2.753518
 C         3.447217         1.087646        -1.644330
 C         2.569142         0.543694        -0.493464
 O         1.759874         1.388945         0.385303
 H        -0.081932        -0.433733         0.799697
 H        -0.578150        -0.710024        -0.949733
 H         0.867616        -1.567566        -0.011270
 H        -0.133062         0.637903        -2.566605
 H        -0.450998         2.021727        -1.334048
 H         0.833974         2.408178        -3.614463
 H         3.289842         1.771041        -3.634697
 H         3.881050         0.180532        -2.154864
 H         4.307827         1.786560        -1.480935
 H         2.977170        -0.302763         0.078499
