19
Iteration:  2948
 C         0.156814        -0.419135        -0.015970
 C         1.114946         0.574399        -0.741948
 C         0.498463         1.075975        -2.035290
 C         1.296268         2.045652        -2.783839
 O         2.062035         2.949706        -1.931852
 C         2.750676         1.970929        -2.567171
 C         3.453555         0.971143        -1.725999
 C         2.587501         0.576765        -0.563312
 O         1.704711         1.570921         0.070239
 H        -0.093208        -1.322651        -0.660463
 H         0.764778        -0.914491         0.822042
 H        -0.668033         0.111872         0.386602
 H         0.187734         0.231534        -2.740714
 H        -0.422895         1.526500        -1.775283
 H         0.969555         2.572989        -3.609106
 H         3.307569         2.296441        -3.380446
 H         4.019043         0.254062        -2.210195
 H         4.338975         1.681779        -1.380988
 H         3.059460        -0.164302         0.153405
