19
Iteration:  4164charge 0 multiplicity 1
 C         0.146110        -0.666169        -0.155442
 C         0.974640         0.498564        -0.636330
 C         0.390373         1.509888        -1.669972
 C         1.313771         1.901190        -2.808950
 O         2.215902         3.096449        -2.599299
 C         2.839505         1.841166        -2.684578
 C         3.476535         1.465516        -1.367572
 C         2.477385         0.471102        -0.697853
 O         1.776895         1.173196         0.358395
 H         0.072072        -1.455465        -0.877364
 H         0.679307        -0.905010         0.781005
 H        -0.972095        -0.351256         0.081210
 H        -0.557812         1.127446        -2.050946
 H         0.101125         2.424930        -1.015802
 H         0.932985         1.864629        -3.810674
 H         3.513529         1.845922        -3.573643
 H         4.469138         0.987580        -1.460971
 H         3.642684         2.489399        -1.098536
 H         2.852552        -0.457899        -0.268139
