19
Iteration:  4214charge 0 multiplicity 1
 C         0.208344        -0.606952        -0.310880
 C         1.091033         0.553147        -0.631390
 C         0.402506         1.434017        -1.817444
 C         1.310550         1.923223        -2.847758
 O         2.093189         3.133937        -2.507973
 C         2.817058         1.909208        -2.700180
 C         3.453226         1.142384        -1.470985
 C         2.565914         0.629902        -0.395328
 O         1.709922         1.285159         0.491507
 H        -0.082309        -1.076689        -1.291472
 H         0.839821        -1.301824         0.352694
 H        -0.631649        -0.302936         0.184495
 H        -0.405520         0.814433        -2.246119
 H        -0.173743         2.179898        -1.272574
 H         1.028596         2.020066        -3.940235
 H         3.338258         1.824272        -3.637397
 H         3.687612         0.175400        -1.947966
 H         4.450900         1.609112        -1.281797
 H         2.948071        -0.310909         0.050289
