19
Iteration:  1861
 C         0.162774        -0.589688        -0.010070
 C         1.040091         0.442909        -0.707918
 C         0.466333         1.310374        -1.865282
 C         1.339973         2.003603        -2.887897
 O         2.120557         3.177024        -2.430681
 C         2.794121         1.893725        -2.670152
 C         3.458777         1.248288        -1.481376
 C         2.529593         0.510589        -0.502469
 O         1.718573         1.331290         0.282753
 H        -0.599136        -1.058120        -0.609907
 H         0.855312        -1.470807         0.399688
 H        -0.224552        -0.007306         0.812498
 H        -0.283300         0.678473        -2.546932
 H        -0.068090         2.091309        -1.356821
 H         0.865513         2.136241        -3.916061
 H         3.410826         1.775290        -3.527779
 H         4.080057         0.471210        -1.915602
 H         4.142885         1.875519        -0.898377
 H         2.927638        -0.309473         0.034471
