19
Iteration:  2321charge 0 multiplicity 1
 C         0.232603        -0.551047        -0.135585
 C         1.027813         0.597424        -0.644167
 C         0.426993         1.114447        -1.938521
 C         1.348728         2.064985        -2.670968
 O         2.178453         3.019528        -2.093947
 C         2.837991         1.923710        -2.690544
 C         3.401062         1.007560        -1.663736
 C         2.502031         0.643753        -0.570025
 O         1.675112         1.586850         0.147524
 H         0.349851        -1.425064        -0.726265
 H         0.532512        -0.813466         0.961734
 H        -0.826812        -0.433184        -0.008208
 H         0.087178         0.304066        -2.552674
 H        -0.460955         1.819082        -1.528180
 H         0.918394         2.302316        -3.629687
 H         3.378654         1.966651        -3.643525
 H         3.519935         0.014107        -2.192008
 H         4.442730         1.251672        -1.282340
 H         3.108606        -0.134430         0.122502
