19
Iteration:  3304
 C         0.275312        -0.674131        -0.500316
 C         1.095756         0.579688        -0.632185
 C         0.584257         1.749748        -1.483208
 C         1.253716         1.847262        -2.782277
 O         2.122311         2.996770        -2.905035
 C         2.799322         1.764049        -2.669612
 C         3.328826         1.465162        -1.314583
 C         2.485891         0.501394        -0.479579
 O         1.668865         1.099155         0.543595
 H        -0.315268        -0.768966        -1.427335
 H         0.862734        -1.548637        -0.255542
 H        -0.497990        -0.551085         0.349181
 H        -0.433906         1.795903        -1.524914
 H         0.904218         2.637861        -0.896097
 H         0.677843         1.559531        -3.701874
 H         3.475045         1.640140        -3.497189
 H         4.397804         1.143701        -1.545553
 H         3.512493         2.320482        -0.674446
 H         2.910986        -0.426363        -0.100701
