19
Iteration:  2284
 C         0.259594        -0.540526         0.137035
 C         1.056849         0.522593        -0.648676
 C         0.467594         1.177956        -2.028060
 C         1.384018         2.150897        -2.877523
 O         2.189034         3.213370        -2.291531
 C         2.845616         1.991284        -2.641639
 C         3.371892         1.019488        -1.591455
 C         2.510918         0.379728        -0.577292
 O         1.563210         1.399894         0.257815
 H        -0.059172        -1.370880        -0.567350
 H         0.996317        -0.854034         0.831339
 H        -0.689937        -0.121620         0.549826
 H        -0.087593         0.511038        -2.704956
 H        -0.358456         1.749043        -1.599530
 H         1.100467         2.498434        -3.872876
 H         3.402115         2.081833        -3.592698
 H         3.727151         0.175325        -2.193992
 H         4.239383         1.465844        -1.089214
 H         2.967007        -0.207949         0.122446
