19
Iteration:  4221
 C         0.232501        -0.594477        -0.339482
 C         1.100879         0.556993        -0.630327
 C         0.393296         1.423680        -1.760059
 C         1.364961         1.939775        -2.832708
 O         2.087055         3.089322        -2.434570
 C         2.819463         1.876603        -2.702331
 C         3.453017         1.146411        -1.557537
 C         2.527941         0.613826        -0.424573
 O         1.693145         1.350298         0.479624
 H        -0.013306        -1.117721        -1.262180
 H         0.611814        -1.397977         0.231230
 H        -0.712775        -0.215314         0.276202
 H        -0.292099         0.724600        -2.410631
 H        -0.235737         2.166152        -1.309374
 H         0.974723         1.775014        -3.831283
 H         3.440840         1.946438        -3.657182
 H         3.764569         0.176720        -1.940221
 H         4.285775         1.784666        -1.325457
 H         3.022448        -0.273968         0.092800
