19
Iteration:  4677
 C         0.129529        -0.681552        -0.225100
 C         1.008508         0.484187        -0.626235
 C         0.534893         1.633486        -1.568955
 C         1.397749         1.862214        -2.842162
 O         2.104966         3.170662        -2.830001
 C         2.861477         1.972319        -2.744624
 C         3.436453         1.369465        -1.363669
 C         2.503747         0.511045        -0.519820
 O         1.686284         1.063702         0.530358
 H        -0.599743        -0.930981        -0.982839
 H         0.700220        -1.576144        -0.272104
 H        -0.503520        -0.504502         0.645103
 H        -0.509071         1.338776        -2.058319
 H         0.594549         2.544818        -1.035795
 H         0.872305         1.515699        -3.775683
 H         3.382917         1.840569        -3.764313
 H         4.203311         0.700211        -1.634218
 H         3.799119         2.127172        -0.686450
 H         2.965524        -0.473333        -0.347512
