19
Iteration:  3241
 C         0.223686        -0.662222        -0.486143
 C         0.978459         0.614385        -0.611974
 C         0.375683         1.731510        -1.485625
 C         1.345208         1.882090        -2.670156
 O         2.195619         3.054732        -2.989649
 C         2.725063         1.730927        -2.665418
 C         3.458444         1.526190        -1.299983
 C         2.502494         0.524058        -0.555131
 O         1.812125         1.006522         0.590125
 H         0.293140        -1.284927        -1.423123
 H         0.652747        -1.255029         0.409290
 H        -0.851348        -0.480721        -0.350259
 H        -0.588028         1.433374        -1.923026
 H         0.351709         2.741676        -0.891476
 H         0.848435         1.470125        -3.559766
 H         3.293313         1.259549        -3.443453
 H         4.491202         1.147394        -1.301443
 H         3.273285         2.412784        -0.734170
 H         2.842417        -0.446951        -0.493121
