19
Iteration:  2504charge 0 multiplicity 1
 C         0.278942        -0.668436        -0.078600
 C         1.062417         0.515007        -0.701917
 C         0.403122         1.346030        -1.807742
 C         1.306005         2.080755        -2.782272
 O         2.236503         3.239045        -2.499746
 C         2.764912         1.887827        -2.733829
 C         3.468366         1.076222        -1.526666
 C         2.504270         0.575419        -0.484063
 O         1.615045         1.340577         0.380917
 H         0.179732        -1.405977        -0.815137
 H         0.832576        -1.157622         0.829196
 H        -0.630375        -0.253382         0.381674
 H        -0.295686         0.690283        -2.440696
 H        -0.282388         1.974300        -1.315106
 H         0.953732         2.157525        -3.804561
 H         3.264596         1.821370        -3.722362
 H         3.614170         0.117370        -1.995723
 H         4.447329         1.470076        -1.207627
 H         2.869566        -0.280355        -0.016472
