19
Iteration:  3391charge 0 multiplicity 1
 C         0.098278        -0.656918        -0.327403
 C         1.025117         0.521276        -0.648092
 C         0.528207         1.658427        -1.519634
 C         1.328183         1.839406        -2.766455
 O         2.124220         3.092129        -2.838218
 C         2.830475         1.841071        -2.718765
 C         3.435935         1.515711        -1.353553
 C         2.546551         0.508576        -0.611675
 O         1.718569         1.038294         0.533087
 H         0.013281        -1.369853        -1.094101
 H         0.357254        -1.181679         0.530763
 H        -0.882393        -0.213993        -0.118567
 H        -0.566760         1.615746        -1.626233
 H         0.673255         2.596670        -0.911812
 H         0.912332         1.417475        -3.720771
 H         3.390098         1.643528        -3.632191
 H         4.373850         0.908868        -1.489365
 H         3.703900         2.387687        -0.748841
 H         3.061324        -0.482468        -0.358364
