19
Iteration:    52
 C         0.209735        -0.509239        -0.241109
 C         1.138260         0.579153        -0.656693
 C         0.306439         1.632656        -1.471197
 C         1.232942         2.203554        -2.606162
 O         2.215076         3.150636        -2.204084
 C         2.634348         1.939714        -2.782895
 C         3.349483         0.847604        -1.940905
 C         2.567717         0.332387        -0.700413
 O         1.981558         1.193027         0.358341
 H         0.634360        -0.990088         0.575620
 H        -0.869790        -0.260963        -0.112675
 H         0.120690        -1.240121        -1.155953
 H        -0.653433         1.134367        -1.824682
 H        -0.084555         2.389987        -0.804251
 H         0.602889         2.475857        -3.459687
 H         3.032437         2.091376        -3.859854
 H         3.672080        -0.002434        -2.655172
 H         4.225012         1.368905        -1.540564
 H         2.955930        -0.626048        -0.216827
