19
Iteration:  3726
 C         0.184355        -0.643815        -0.225648
 C         1.077141         0.533010        -0.626802
 C         0.341460         1.428591        -1.679770
 C         1.355626         2.046494        -2.786317
 O         2.160443         3.245075        -2.733392
 C         2.757332         1.906047        -2.665848
 C         3.551259         1.152752        -1.447744
 C         2.566463         0.467670        -0.469261
 O         1.656730         1.228692         0.439769
 H        -0.189257        -1.131210        -1.100049
 H         0.817087        -1.344053         0.322289
 H        -0.679041        -0.308243         0.380229
 H        -0.460612         0.871553        -2.140649
 H        -0.210605         2.136348        -1.163786
 H         0.931791         2.115840        -3.770523
 H         3.295193         1.635074        -3.570951
 H         4.245701         0.415176        -1.896952
 H         4.224406         1.974048        -1.042427
 H         2.980854        -0.479257         0.104121
