19
Iteration:  2181charge 0 multiplicity 1
 C         0.278891        -0.687200        -0.062894
 C         0.985193         0.528151        -0.638274
 C         0.366585         1.390882        -1.774870
 C         1.357627         2.067864        -2.757162
 O         2.258935         3.207519        -2.508701
 C         2.889039         1.940580        -2.716118
 C         3.351045         1.122165        -1.518095
 C         2.398161         0.417570        -0.641837
 O         1.684470         1.383773         0.369419
 H         0.566486        -1.522807        -0.803609
 H         0.754281        -0.865624         1.039894
 H        -0.757649        -0.622164         0.361712
 H         0.058566         0.569854        -2.529888
 H        -0.491470         1.942902        -1.511012
 H         0.840879         2.184322        -3.779913
 H         3.537942         1.861725        -3.593614
 H         3.983237         0.379836        -2.064477
 H         4.033553         1.737758        -0.913617
 H         2.893736        -0.326478        -0.057214
