19
Iteration:  4918charge 0 multiplicity 1
 C         0.236238        -0.338674         0.053662
 C         1.061487         0.586198        -0.776726
 C         0.527760         1.117687        -2.156538
 C         1.329217         2.101676        -2.870702
 O         1.945113         3.024650        -1.948225
 C         2.745676         2.016181        -2.557523
 C         3.399311         0.943938        -1.643016
 C         2.535592         0.379965        -0.523547
 O         1.849941         1.480864         0.115251
 H         0.067034        -1.321452        -0.480796
 H         0.622160        -0.624718         1.058532
 H        -0.803009         0.177160         0.214437
 H         0.389343         0.215949        -2.704352
 H        -0.598410         1.611766        -1.995100
 H         1.045731         2.547953        -3.969094
 H         3.500535         2.507813        -3.261617
 H         3.950475         0.096460        -2.264117
 H         4.250028         1.535345        -1.155496
 H         2.863109        -0.366624         0.194785
