19
Iteration:  3569
 C         0.148249        -0.458806         0.014460
 C         1.087916         0.487188        -0.770668
 C         0.500941         1.124063        -2.033667
 C         1.336661         2.081947        -2.738309
 O         2.004785         3.057053        -1.987973
 C         2.771103         1.890483        -2.683356
 C         3.465283         0.996610        -1.639931
 C         2.541456         0.499082        -0.501599
 O         1.782132         1.561319         0.032110
 H        -0.293909        -1.251551        -0.559359
 H         0.669520        -0.878183         0.884816
 H        -0.625609         0.120636         0.397553
 H         0.172761         0.489252        -2.863480
 H        -0.383603         1.876964        -1.689107
 H         0.974180         2.502727        -3.727869
 H         3.452677         2.423840        -3.352800
 H         4.057352         0.212488        -2.176924
 H         4.222192         1.579613        -1.065854
 H         2.976049        -0.266369         0.295203
