19
Iteration:   294
 C         0.158395        -0.286874         0.144970
 C         0.978522         0.655232        -0.602953
 C         0.367793         1.369971        -1.843681
 C         1.226393         2.230955        -2.650538
 O         2.155575         3.167046        -1.952673
 C         2.665933         2.047804        -2.686840
 C         3.384088         0.947043        -1.917899
 C         2.488582         0.205831        -0.912287
 O         2.140695         1.084018         0.152805
 H         0.875190        -1.083597         0.485347
 H        -0.531214         0.005234         0.984973
 H        -0.555873        -0.858910        -0.751259
 H         0.232967         0.389041        -2.484117
 H        -0.631926         1.854362        -1.707729
 H         0.749730         2.731545        -3.410400
 H         3.313313         2.246550        -3.492654
 H         3.724722         0.200807        -2.679876
 H         4.156188         1.399756        -1.355208
 H         2.737373        -0.791587        -0.538925
