19
Iteration:   341charge 0 multiplicity 1
 C         0.112829        -0.436515         0.078464
 C         1.068671         0.454946        -0.729624
 C         0.367536         1.475343        -1.689512
 C         1.250754         2.188837        -2.607683
 O         2.166855         3.199346        -2.027692
 C         2.707130         2.027313        -2.701942
 C         3.401329         0.943775        -1.945104
 C         2.620117         0.280465        -0.801079
 O         1.923511         1.188666         0.103415
 H         0.632270        -1.462318         0.497232
 H        -0.200683         0.150045         0.945194
 H        -0.823176        -0.746962        -0.545145
 H        -0.580513         1.153127        -2.168163
 H         0.159125         2.155789        -0.883099
 H         0.936825         2.486396        -3.585069
 H         3.176744         2.161466        -3.690052
 H         3.553541         0.145994        -2.691080
 H         4.348729         1.261676        -1.471867
 H         3.053792        -0.576074        -0.249854
