19
Iteration:  2726
 C         0.115153        -0.470388        -0.111825
 C         1.076844         0.527804        -0.670705
 C         0.421187         1.375307        -1.853089
 C         1.331210         1.948805        -2.796776
 O         2.074323         3.147539        -2.490376
 C         2.807887         1.880077        -2.722832
 C         3.430234         1.354837        -1.487884
 C         2.612669         0.443516        -0.563240
 O         1.798551         1.137657         0.433279
 H        -0.083958        -1.334038        -0.802872
 H         0.539517        -0.720525         0.817612
 H        -0.888603        -0.010156         0.044783
 H        -0.146781         0.520946        -2.452506
 H        -0.227917         2.115916        -1.386911
 H         0.842748         2.080246        -3.748538
 H         3.372964         1.873147        -3.704771
 H         4.248721         0.682655        -1.677844
 H         3.888910         2.171260        -0.832655
 H         2.983938        -0.517200        -0.255515
