19
Iteration:   659charge 0 multiplicity 1
 C         0.184656        -0.401277         0.046079
 C         1.024897         0.666352        -0.629154
 C         0.334020         1.588230        -1.631826
 C         1.294303         2.157828        -2.726171
 O         2.068663         3.221110        -2.185541
 C         2.777474         2.078075        -2.727205
 C         3.404913         1.002388        -1.773676
 C         2.386293         0.191237        -0.944371
 O         2.130329         0.874076         0.265548
 H        -0.188221         0.179680         1.031051
 H        -0.685996        -0.860646        -0.518804
 H         0.833339        -1.242469         0.503734
 H        -0.499422         0.910224        -2.147496
 H        -0.362298         2.431390        -1.281883
 H         0.845341         2.418882        -3.677739
 H         3.288426         2.345459        -3.589345
 H         4.115544         0.388967        -2.438880
 H         4.046687         1.510153        -1.040409
 H         2.590488        -0.859099        -0.871180
