19
Iteration:  1334charge 0 multiplicity 1
 C         0.032125        -0.544752        -0.199098
 C         1.071420         0.550540        -0.578996
 C         0.425647         1.489701        -1.594300
 C         1.224819         2.161355        -2.686505
 O         2.191954         3.088163        -2.280879
 C         2.690467         1.900597        -2.812314
 C         3.427292         1.063160        -1.802878
 C         2.624989         0.458971        -0.607992
 O         1.943979         1.220902         0.345567
 H        -0.651677        -0.162141         0.600506
 H        -0.406897        -0.741095        -1.202994
 H         0.425599        -1.480965         0.249449
 H         0.075546         0.733490        -2.194549
 H        -0.374397         2.122654        -1.118481
 H         0.600018         2.358176        -3.626364
 H         3.108034         1.954585        -3.752723
 H         3.803292         0.205955        -2.375250
 H         4.231738         1.658182        -1.381332
 H         3.098716        -0.399214        -0.228182
