19
Iteration:  1001
 C         0.098476        -0.446600        -0.176693
 C         1.181273         0.587024        -0.585988
 C         0.450003         1.626757        -1.439746
 C         1.150415         2.228421        -2.635856
 O         2.177225         3.196704        -2.284986
 C         2.628517         1.959300        -2.778179
 C         3.355017         1.045627        -1.873001
 C         2.526316         0.245241        -0.850431
 O         2.079686         0.955565         0.377832
 H        -0.868783         0.092468        -0.146130
 H        -0.158683        -1.206774        -0.938844
 H         0.368962        -0.957168         0.726029
 H        -0.254924         0.855901        -2.056098
 H        -0.194981         2.301398        -0.751495
 H         0.527357         2.564059        -3.486217
 H         3.030043         1.976605        -3.802303
 H         3.872479         0.320492        -2.483690
 H         4.082938         1.538174        -1.270883
 H         2.857171        -0.727063        -0.578384
