19
Iteration:  4423
 C         0.212358        -0.590753        -0.173650
 C         1.078550         0.543035        -0.721425
 C         0.353749         1.378127        -1.845897
 C         1.292460         2.047618        -2.864514
 O         2.163438         3.135174        -2.397689
 C         2.776983         1.862747        -2.624546
 C         3.477681         1.143665        -1.507749
 C         2.592238         0.526893        -0.472231
 O         1.700276         1.341075         0.368747
 H        -0.319597        -1.219478        -0.963457
 H         0.795293        -1.374744         0.455423
 H        -0.650168        -0.301744         0.416373
 H        -0.175194         0.487031        -2.365041
 H        -0.287331         2.080223        -1.478561
 H         0.867400         2.199271        -3.901733
 H         3.387197         1.967680        -3.514922
 H         4.054054         0.417633        -2.013381
 H         4.202989         1.759828        -1.050786
 H         2.933344        -0.415087         0.013587
