19
Iteration:   671
 C         0.113676        -0.395578         0.049913
 C         1.019571         0.564462        -0.643993
 C         0.469640         1.634714        -1.626144
 C         1.269890         2.232254        -2.710509
 O         2.027844         3.287980        -2.238339
 C         2.744904         1.992329        -2.746151
 C         3.368788         1.056166        -1.772894
 C         2.458063         0.137806        -0.882729
 O         2.134587         0.885154         0.289773
 H        -0.482039        -0.060186         1.040003
 H        -0.631331        -0.886947        -0.680506
 H         0.825573        -1.197098         0.310894
 H        -0.206869         0.869160        -2.274472
 H        -0.102727         2.475355        -1.110060
 H         0.659815         2.443211        -3.597124
 H         3.290044         2.087267        -3.590721
 H         3.924182         0.320210        -2.451097
 H         4.132149         1.535159        -1.124787
 H         2.702915        -0.877833        -0.740825
