19
Iteration:  1544charge 0 multiplicity 1
 C         0.006077        -0.433345        -0.020632
 C         1.061743         0.513486        -0.648651
 C         0.485501         1.230219        -1.856510
 C         1.289531         2.101819        -2.680397
 O         2.054047         3.124716        -2.197433
 C         2.776551         1.940209        -2.741716
 C         3.488763         1.117529        -1.755797
 C         2.558936         0.433979        -0.673674
 O         1.932816         1.312497         0.356164
 H        -0.953482        -0.504267        -0.623696
 H         0.434033        -1.600570         0.069064
 H        -0.276765         0.044235         0.865572
 H         0.300928         0.433266        -2.563350
 H        -0.630697         1.703418        -1.784744
 H         0.842273         2.267116        -3.707293
 H         3.322103         2.411762        -3.629984
 H         3.879253         0.258783        -2.399196
 H         4.333727         1.738520        -1.341839
 H         2.995021        -0.443402        -0.271690
