19
Iteration:  4031
 C         0.142559        -0.575209        -0.183050
 C         1.047438         0.609273        -0.625810
 C         0.416982         1.259900        -1.752667
 C         1.317822         2.018606        -2.724313
 O         2.159419         3.174029        -2.488101
 C         2.800212         1.935407        -2.727667
 C         3.487117         1.224018        -1.565021
 C         2.472009         0.445858        -0.557478
 O         1.769414         1.309787         0.416387
 H         0.157572        -1.270420        -1.080683
 H         0.618616        -1.242874         0.677214
 H        -0.899374        -0.243114         0.114858
 H         0.064620         0.412404        -2.252649
 H        -0.488327         1.948208        -1.445702
 H         0.933153         2.124672        -3.734030
 H         3.382197         1.733950        -3.621318
 H         4.139187         0.414511        -2.004036
 H         4.122747         1.981777        -1.098664
 H         2.934108        -0.456296        -0.160427
