19
Iteration:  4759charge 0 multiplicity 1
 C         0.212997        -0.675461        -0.386551
 C         1.014469         0.584152        -0.589876
 C         0.405882         1.539883        -1.671962
 C         1.280451         2.023434        -2.795316
 O         2.181222         3.093939        -2.663567
 C         2.735797         1.809044        -2.733730
 C         3.449395         1.290248        -1.476007
 C         2.557339         0.483365        -0.456843
 O         1.773326         1.191576         0.563430
 H         0.462654        -1.444492        -1.101640
 H         0.303476        -0.731917         0.729853
 H        -0.846497        -0.416201        -0.364467
 H        -0.353402         1.047979        -2.205681
 H        -0.063673         2.497973        -1.267880
 H         0.849455         1.974039        -3.745003
 H         3.317193         1.780371        -3.609301
 H         4.305747         0.604514        -1.783210
 H         3.999993         2.119993        -0.985349
 H         2.912764        -0.512010        -0.128053
