19
Iteration:  2211charge 0 multiplicity 1
 C         0.092068        -0.474820        -0.124091
 C         1.123684         0.447182        -0.706214
 C         0.422268         1.344855        -1.873852
 C         1.357007         1.955428        -2.849682
 O         2.018381         3.214308        -2.389233
 C         2.836199         1.851723        -2.679721
 C         3.477256         1.175155        -1.551131
 C         2.561003         0.493075        -0.542766
 O         1.784766         1.298266         0.435091
 H        -0.101431        -1.170583        -0.870145
 H         0.548440        -1.104439         0.751715
 H        -0.819561         0.016045        -0.032979
 H        -0.341580         0.840465        -2.402982
 H        -0.179169         2.205587        -1.423382
 H         0.978547         1.980942        -3.835357
 H         3.416313         1.907420        -3.565293
 H         4.048299         0.316766        -1.956047
 H         4.179540         1.823423        -0.960918
 H         3.021579        -0.376778         0.105058
