19
Iteration:    46charge 0 multiplicity 1
 C         0.234313        -0.471888        -0.280475
 C         1.107777         0.648483        -0.629571
 C         0.353584         1.648798        -1.503735
 C         1.191348         2.175436        -2.619123
 O         2.166833         3.112030        -2.145022
 C         2.619488         1.889399        -2.745952
 C         3.350271         0.854837        -1.936163
 C         2.556350         0.361565        -0.729834
 O         2.016289         1.174173         0.341335
 H         0.693253        -1.056994         0.612106
 H        -0.821771        -0.266448        -0.138379
 H         0.258750        -1.083157        -1.142306
 H        -0.464097         1.105354        -1.942549
 H        -0.096000         2.462008        -0.875692
 H         0.612689         2.455637        -3.506395
 H         3.130303         1.990654        -3.664574
 H         3.565699         0.011591        -2.552147
 H         4.338077         1.239036        -1.599503
 H         2.940558        -0.567585        -0.370238
