19
Iteration:  3032
 C         0.149448        -0.566184        -0.209740
 C         1.068799         0.546240        -0.647507
 C         0.378497         1.390105        -1.720010
 C         1.338760         1.917050        -2.823002
 O         2.109098         3.109091        -2.417402
 C         2.819619         1.895985        -2.679758
 C         3.526973         1.291861        -1.527467
 C         2.574407         0.515929        -0.597665
 O         1.731561         1.262404         0.370743
 H        -0.092287        -1.388769        -0.930081
 H         0.336257        -0.893602         0.765098
 H        -0.814236        -0.013702        -0.107923
 H        -0.258101         0.645047        -2.183979
 H        -0.298401         2.184564        -1.144818
 H         0.972840         1.766386        -3.917236
 H         3.310821         1.799310        -3.708104
 H         4.321212         0.499351        -1.821801
 H         3.874709         2.082873        -0.950234
 H         2.957400        -0.367221        -0.180163
