19
Iteration:  2487
 C         0.338808        -0.681157        -0.171304
 C         0.994019         0.544740        -0.660510
 C         0.380781         1.417394        -1.751014
 C         1.432352         2.038572        -2.787115
 O         2.114226         3.200736        -2.499631
 C         2.824554         1.869171        -2.662492
 C         3.420051         1.001685        -1.625805
 C         2.522150         0.558452        -0.430477
 O         1.605243         1.400031         0.343426
 H        -0.301095        -1.186843        -1.017452
 H         1.080932        -1.352706         0.315975
 H        -0.424323        -0.353796         0.568411
 H        -0.257546         0.807100        -2.330903
 H        -0.243241         2.270203        -1.220614
 H         0.807349         1.951225        -3.708975
 H         3.449360         1.898937        -3.550321
 H         4.022597         0.126663        -2.032452
 H         4.342495         1.534540        -1.228159
 H         3.087543        -0.135162         0.376718
