19
Iteration:  2146
 C         0.288912        -0.618763        -0.146439
 C         1.057287         0.505246        -0.752182
 C         0.331663         1.438019        -1.785536
 C         1.314164         2.036247        -2.805562
 O         2.205049         2.996673        -2.275267
 C         2.760025         1.820273        -2.710662
 C         3.479082         1.138511        -1.572068
 C         2.543539         0.552223        -0.515712
 O         1.619014         1.464049         0.275257
 H         0.323714        -1.522721        -0.738982
 H         0.958988        -0.925638         0.839412
 H        -0.753905        -0.415092        -0.116639
 H        -0.236078         0.824630        -2.449094
 H        -0.349266         2.093080        -1.252271
 H         0.905254         2.378855        -3.715714
 H         3.336968         1.964157        -3.585185
 H         4.027759         0.247206        -1.942923
 H         4.245243         1.833039        -1.159226
 H         3.090103        -0.158835         0.190096
