19
Iteration:  1952
 C         0.241079        -0.649094        -0.082996
 C         0.991732         0.444912        -0.710768
 C         0.312277         1.384399        -1.781014
 C         1.334874         2.039276        -2.738893
 O         2.210930         3.122441        -2.394411
 C         2.793576         1.802349        -2.659395
 C         3.481926         1.221499        -1.512248
 C         2.535710         0.535505        -0.543268
 O         1.712810         1.409094         0.181302
 H         0.405568        -1.670355        -0.465217
 H         0.461329        -0.679781         1.018694
 H        -0.824182        -0.416528        -0.134166
 H        -0.376902         0.761853        -2.427043
 H        -0.322761         2.064158        -1.207687
 H         1.001041         2.188346        -3.867237
 H         3.329232         1.810615        -3.704644
 H         4.169912         0.424926        -1.865507
 H         4.059678         2.037841        -1.064848
 H         3.058620        -0.219315         0.076550
