19
Iteration:  4524charge 0 multiplicity 1
 C         0.055487        -0.714998        -0.259174
 C         1.013078         0.558816        -0.611214
 C         0.443475         1.577721        -1.639031
 C         1.341884         1.966714        -2.827342
 O         2.196126         3.139651        -2.729976
 C         2.782285         1.783437        -2.683644
 C         3.433888         1.445415        -1.398575
 C         2.522885         0.530318        -0.589606
 O         1.858224         1.086066         0.512358
 H         0.564125        -1.643084        -0.673537
 H        -0.110000        -0.951446         0.764230
 H        -1.109317        -0.888516        -0.625603
 H        -0.643456         1.385028        -1.986520
 H         0.245692         2.383323        -1.003381
 H         0.766334         1.838972        -3.772610
 H         3.410374         1.711096        -3.655703
 H         4.359947         0.932809        -1.456964
 H         3.572730         2.445484        -0.945729
 H         3.001942        -0.449542        -0.451981
