19
Iteration:  2962
 C         0.269714        -0.484092         0.004424
 C         1.008451         0.528855        -0.743760
 C         0.388087         1.095283        -2.017399
 C         1.355612         2.033729        -2.802759
 O         2.089431         2.981539        -1.927896
 C         2.881040         1.976345        -2.744855
 C         3.477732         1.024943        -1.703850
 C         2.497460         0.622346        -0.593919
 O         1.686400         1.565025         0.179376
 H        -0.179003        -1.184069        -0.667878
 H         0.877933        -1.039380         0.840712
 H        -0.620770         0.012708         0.504047
 H         0.203284         0.150601        -2.677422
 H        -0.638114         1.669699        -1.773434
 H         0.923907         2.439748        -3.727122
 H         3.506387         2.462625        -3.513924
 H         3.665571         0.006790        -2.194674
 H         4.399729         1.426718        -1.120539
 H         2.943056        -0.103439         0.148872
