19
Iteration:  3382charge 0 multiplicity 1
 C         0.091768        -0.604566        -0.327208
 C         1.066483         0.449484        -0.651083
 C         0.571787         1.704740        -1.537832
 C         1.384310         1.923987        -2.855327
 O         2.064237         3.042215        -2.798144
 C         2.826400         1.798900        -2.716924
 C         3.344479         1.507467        -1.340499
 C         2.511003         0.478441        -0.568189
 O         1.786336         1.041404         0.513621
 H         0.047754        -1.333655        -1.153770
 H         0.531633        -1.101545         0.595749
 H        -0.900317        -0.170392        -0.145687
 H        -0.403901         1.572850        -1.778165
 H         0.776816         2.489687        -0.711419
 H         0.771888         1.589731        -3.769416
 H         3.429256         1.500537        -3.571186
 H         4.459573         1.188188        -1.382330
 H         3.162250         2.379550        -0.688498
 H         2.996142        -0.418298        -0.278379
