19
Iteration:  3567charge 0 multiplicity 1
 C         0.131341        -0.460304        -0.000738
 C         1.101484         0.476849        -0.772596
 C         0.496647         1.143233        -2.024416
 C         1.342437         2.068408        -2.732016
 O         2.008860         3.052717        -2.002051
 C         2.764485         1.900508        -2.674467
 C         3.475908         1.015620        -1.629670
 C         2.539173         0.491925        -0.516467
 O         1.794962         1.555948         0.037627
 H        -0.343549        -1.235351        -0.508270
 H         0.685684        -0.854377         0.911573
 H        -0.702368         0.115979         0.391343
 H         0.042481         0.439745        -2.846903
 H        -0.354266         1.815359        -1.708447
 H         0.920912         2.483104        -3.710524
 H         3.467219         2.412019        -3.361327
 H         4.079746         0.219049        -2.128965
 H         4.204714         1.645061        -1.130351
 H         2.954286        -0.263841         0.337763
