19
Iteration:  3895charge 0 multiplicity 1
 C         0.163292        -0.551949        -0.037080
 C         1.013891         0.512966        -0.697807
 C         0.391462         1.173184        -1.931755
 C         1.408703         1.983938        -2.804154
 O         2.083456         3.167555        -2.217364
 C         2.857227         1.996364        -2.615995
 C         3.420294         1.067815        -1.672558
 C         2.539291         0.526570        -0.508266
 O         1.769692         1.488528         0.226748
 H        -0.251118        -1.184236        -0.926277
 H         0.625076        -1.268511         0.615192
 H        -0.652345        -0.094170         0.572033
 H        -0.039907         0.442438        -2.473210
 H        -0.530694         1.742803        -1.525797
 H         1.119924         2.050628        -3.871923
 H         3.520196         2.327203        -3.427839
 H         3.622822         0.083060        -2.145545
 H         4.390516         1.298398        -1.202126
 H         3.050418        -0.239237         0.061024
