19
Iteration:  2551
 C         0.138892        -0.425275        -0.109042
 C         1.054606         0.581371        -0.676900
 C         0.364508         1.278411        -1.861178
 C         1.301752         1.976864        -2.799666
 O         2.014732         3.023039        -2.232401
 C         2.814706         1.892357        -2.619050
 C         3.562881         1.193568        -1.538598
 C         2.545250         0.445007        -0.646511
 O         1.867420         1.360630         0.211445
 H         0.452922        -1.484552        -0.400154
 H         0.071673        -0.394814         1.062695
 H        -0.889832        -0.096486        -0.374641
 H        -0.170204         0.522718        -2.401699
 H        -0.462838         1.989989        -1.542282
 H         0.862857         2.312041        -3.721043
 H         3.400892         1.902143        -3.575134
 H         4.174608         0.482088        -2.102620
 H         4.146724         1.915810        -0.848000
 H         2.945484        -0.447806        -0.138647
