19
Iteration:  2334charge 0 multiplicity 1
 C         0.235624        -0.535612        -0.141691
 C         1.087740         0.620635        -0.682416
 C         0.393704         1.190423        -1.888601
 C         1.321294         1.975429        -2.772939
 O         2.153653         3.026002        -2.026157
 C         2.750008         1.856870        -2.659621
 C         3.479869         0.958791        -1.714194
 C         2.536752         0.558233        -0.510735
 O         1.687245         1.649470         0.155583
 H         0.531746        -1.369711        -0.876349
 H         0.401150        -0.880682         0.862724
 H        -0.789162        -0.150109        -0.332384
 H         0.023865         0.327846        -2.551637
 H        -0.617125         1.719116        -1.666317
 H         0.878781         2.474122        -3.724128
 H         3.359379         2.257747        -3.484170
 H         4.024861         0.080475        -2.207932
 H         4.268951         1.640308        -1.346572
 H         2.837810        -0.246115         0.319204
