19
Iteration:  1941charge 0 multiplicity 1
 C         0.199879        -0.601814        -0.066928
 C         1.100803         0.554823        -0.746297
 C         0.414606         1.350565        -1.762749
 C         1.285882         2.033944        -2.786994
 O         2.186073         3.053803        -2.366542
 C         2.741384         1.819054        -2.653073
 C         3.467311         1.221301        -1.474071
 C         2.558732         0.534802        -0.581507
 O         1.682430         1.366438         0.176475
 H         0.431882        -1.481468        -0.661059
 H         0.487784        -0.778593         1.041486
 H        -0.863766        -0.432758        -0.192825
 H        -0.458273         0.871304        -2.297665
 H        -0.034751         2.172286        -1.194916
 H         0.751457         2.075680        -3.869389
 H         3.461816         1.715392        -3.603441
 H         4.352394         0.654412        -1.805122
 H         3.870361         2.035358        -0.856701
 H         2.916837        -0.357959        -0.054388
