19
Iteration:    69charge 0 multiplicity 1
 C         0.115168        -0.689332        -0.106119
 C         1.045506         0.434702        -0.627696
 C         0.439586         1.573290        -1.476023
 C         1.213425         2.324711        -2.562333
 O         2.345667         3.259193        -2.339078
 C         2.609735         1.935368        -2.848850
 C         3.375957         0.993022        -1.869476
 C         2.516971         0.360798        -0.737750
 O         1.932894         1.157269         0.291225
 H         0.605491        -1.216600         0.853583
 H        -0.846283        -0.223647         0.186844
 H        -0.193274        -1.363962        -0.840452
 H        -0.477383         1.279423        -1.949490
 H         0.122816         2.338551        -0.674010
 H         0.513763         2.677865        -3.371077
 H         3.066037         1.820632        -3.795512
 H         3.656259         0.120351        -2.397019
 H         4.344975         1.391009        -1.482432
 H         3.003388        -0.526932        -0.415469
