19
Iteration:  1105
 C         0.173012        -0.477475        -0.247221
 C         1.095311         0.576570        -0.606756
 C         0.363701         1.531407        -1.608768
 C         1.241214         2.236273        -2.571186
 O         2.169301         3.140724        -2.157871
 C         2.623385         1.882020        -2.845048
 C         3.334181         0.954684        -1.902987
 C         2.551122         0.329941        -0.688629
 O         2.047430         1.207483         0.376136
 H         0.633130        -1.122129         0.518406
 H        -0.830940        -0.034814        -0.065159
 H         0.046902        -1.120984        -1.094089
 H        -0.391450         0.832726        -2.172689
 H        -0.150453         2.312164        -1.006299
 H         0.669318         2.416965        -3.454430
 H         3.025986         2.096647        -3.846181
 H         3.719478         0.040017        -2.451655
 H         4.299068         1.367214        -1.439036
 H         2.974761        -0.609536        -0.210259
