19
Iteration:  3695
 C         0.147497        -0.578593        -0.106469
 C         1.021610         0.538076        -0.655128
 C         0.424681         1.378085        -1.802092
 C         1.394098         1.964072        -2.905755
 O         2.078915         3.170819        -2.474987
 C         2.879402         1.943421        -2.693437
 C         3.379982         1.226394        -1.533342
 C         2.494539         0.482964        -0.557305
 O         1.792263         1.209033         0.443024
 H         0.009625        -1.392650        -0.809751
 H         0.695683        -1.058406         0.789680
 H        -0.884740        -0.235775         0.265147
 H        -0.326521         0.911810        -2.368584
 H         0.039575         2.439809        -1.320828
 H         1.041468         2.050793        -3.900929
 H         3.630758         1.865259        -3.484968
 H         4.043178         0.396932        -1.822195
 H         4.041021         2.020370        -1.079300
 H         2.902452        -0.380833        -0.104282
