19
Iteration:  3037charge 0 multiplicity 1
 C         0.142728        -0.543719        -0.236200
 C         1.080985         0.597694        -0.611957
 C         0.363720         1.393206        -1.704363
 C         1.318665         1.880835        -2.832061
 O         2.097508         3.075695        -2.411706
 C         2.867332         1.896360        -2.728915
 C         3.503329         1.291291        -1.531550
 C         2.585277         0.528070        -0.612638
 O         1.721850         1.233351         0.404124
 H         0.057151        -1.406743        -0.903964
 H         0.262520        -1.062927         0.807610
 H        -0.772912         0.052967        -0.216715
 H        -0.445323         0.772453        -2.163927
 H        -0.116167         2.184192        -1.252664
 H         1.002644         1.871775        -3.830886
 H         3.362412         1.819028        -3.659393
 H         4.391517         0.762988        -1.731512
 H         3.890404         2.208443        -0.908683
 H         2.950179        -0.525221        -0.313349
