19
Iteration:  2606
 C         0.155554        -0.469529         0.105319
 C         1.004401         0.519936        -0.646233
 C         0.440108         1.120949        -1.991469
 C         1.411648         2.004246        -2.834349
 O         2.113380         3.211472        -2.121379
 C         2.785520         2.086099        -2.631855
 C         3.379354         0.999389        -1.714597
 C         2.537357         0.498014        -0.558648
 O         1.764723         1.422278         0.158318
 H         0.121794        -1.429209        -0.542583
 H         0.696611        -0.544163         1.081681
 H        -0.924265        -0.173321         0.175218
 H         0.495058         0.167125        -2.557261
 H        -0.656468         1.338166        -2.039482
 H         1.047791         2.181870        -3.816886
 H         3.518921         2.222336        -3.486222
 H         3.726374         0.164931        -2.316024
 H         4.419611         1.290245        -1.278355
 H         2.969205        -0.303470         0.068282
