19
Iteration:  2054
 C         0.109427        -0.389345         0.183373
 C         1.021971         0.390437        -0.761705
 C         0.411466         1.057150        -2.060763
 C         1.378575         2.041003        -2.833990
 O         2.063700         3.097154        -2.080095
 C         2.865346         1.985188        -2.649666
 C         3.524888         1.151487        -1.536890
 C         2.479301         0.476004        -0.685092
 O         1.774143         1.436898         0.069359
 H        -0.433153        -1.249079        -0.308549
 H         0.668274        -0.778093         0.986318
 H        -0.623885         0.358878         0.577196
 H        -0.011709         0.327388        -2.669476
 H        -0.428628         1.656122        -1.583746
 H         0.815064         2.415591        -3.743469
 H         3.678070         2.387999        -3.416853
 H         4.255715         0.479418        -2.026851
 H         4.135293         1.764407        -0.836998
 H         3.080756        -0.303414        -0.063744
