19
Iteration:  3054charge 0 multiplicity 1
 C         0.130124        -0.534795        -0.276687
 C         1.012720         0.601882        -0.645221
 C         0.453099         1.482406        -1.739735
 C         1.343596         1.869618        -2.859664
 O         2.057555         3.011538        -2.479492
 C         2.811825         1.834218        -2.764019
 C         3.473321         1.396775        -1.449473
 C         2.503578         0.480206        -0.571990
 O         1.851127         1.181136         0.518977
 H         0.312346        -1.276487        -1.110434
 H         0.531823        -0.915448         0.613439
 H        -0.959287        -0.443356        -0.250661
 H        -0.431167         0.985721        -2.109213
 H         0.157444         2.570768        -1.238835
 H         0.716348         1.980862        -3.833122
 H         3.475742         2.034723        -3.672887
 H         4.345360         0.674328        -1.665124
 H         3.649134         2.248344        -0.887356
 H         2.960855        -0.366918        -0.181273
