19
Iteration:   602charge 0 multiplicity 1
 C         0.132115        -0.490990        -0.063507
 C         1.083781         0.482289        -0.674103
 C         0.387372         1.359368        -1.670892
 C         1.251320         2.335221        -2.535232
 O         2.317722         3.160799        -2.004335
 C         2.593896         1.957087        -2.717063
 C         3.317518         0.861431        -1.996460
 C         2.579166         0.365284        -0.792191
 O         1.984709         1.311627         0.185651
 H        -0.704299         0.090676         0.407498
 H        -0.439746        -1.023868        -0.822628
 H         0.676764        -1.322585         0.715261
 H        -0.315211         0.773183        -2.392517
 H        -0.361098         1.972843        -1.004189
 H         0.641373         2.875684        -3.263801
 H         2.914353         2.219406        -3.750544
 H         3.287114        -0.013878        -2.772132
 H         4.373148         1.092061        -1.797519
 H         3.001071        -0.506013        -0.206296
