19
Iteration:  4520
 C         0.067587        -0.732186        -0.222424
 C         0.982807         0.562158        -0.627066
 C         0.445655         1.566046        -1.656534
 C         1.327615         2.006833        -2.806468
 O         2.208934         3.154618        -2.754631
 C         2.788064         1.803112        -2.724491
 C         3.430481         1.414366        -1.376837
 C         2.525654         0.521414        -0.594543
 O         1.819901         1.076413         0.532508
 H         0.638539        -1.553051        -0.766340
 H        -0.085652        -0.932902         0.912362
 H        -0.867923        -0.838306        -0.652372
 H        -0.605986         1.264485        -1.977708
 H         0.383288         2.425934        -0.931297
 H         0.835691         1.817074        -3.805944
 H         3.344295         1.709018        -3.603076
 H         4.406205         0.923008        -1.552050
 H         3.674146         2.374118        -0.966172
 H         3.040107        -0.441926        -0.396338
