19
Iteration:  2704charge 0 multiplicity 1
 C         0.178266        -0.547726        -0.005333
 C         1.021940         0.516689        -0.704233
 C         0.403266         1.300196        -1.893934
 C         1.323709         2.040468        -2.972659
 O         2.075058         3.242804        -2.482866
 C         2.834608         1.963086        -2.625298
 C         3.432097         1.166537        -1.491894
 C         2.502638         0.406385        -0.544672
 O         1.842431         1.282988         0.442723
 H        -0.195906        -1.168456        -0.873795
 H         0.818988        -1.116832         0.628381
 H        -0.755122        -0.176598         0.489395
 H        -0.081503         0.332357        -2.405279
 H        -0.304370         1.887177        -1.302606
 H         1.043811         2.049257        -4.014929
 H         3.503889         2.037062        -3.546560
 H         4.105603         0.455149        -1.971415
 H         4.092814         1.823539        -0.807178
 H         2.768786        -0.525611        -0.086934
