19
Iteration:  4916charge 0 multiplicity 1
 C         0.225995        -0.335830         0.075639
 C         1.058828         0.582696        -0.796856
 C         0.518141         1.129386        -2.144654
 C         1.334725         2.090284        -2.892313
 O         1.929491         3.031879        -1.931283
 C         2.760473         2.027311        -2.551549
 C         3.420911         0.948427        -1.658132
 C         2.519838         0.364148        -0.494890
 O         1.857546         1.485680         0.102974
 H         0.078421        -1.340994        -0.513264
 H         0.696117        -0.627825         1.024070
 H        -0.741494         0.210704         0.165295
 H         0.357892         0.189223        -2.765404
 H        -0.631306         1.603064        -2.030824
 H         1.071140         2.469071        -3.942916
 H         3.484474         2.479393        -3.242460
 H         3.919338         0.108921        -2.316255
 H         4.261870         1.520445        -1.176329
 H         2.874577        -0.416996         0.222568
