19
Iteration:   154
 C        -0.024381        -0.420158        -0.125831
 C         1.118416         0.429077        -0.613115
 C         0.427102         1.517621        -1.483313
 C         1.171619         2.188194        -2.676484
 O         2.089744         3.166010        -2.281717
 C         2.796912         2.075640        -2.690884
 C         3.448221         0.980142        -1.869628
 C         2.598087         0.322306        -0.835121
 O         2.016356         1.084426         0.298023
 H         0.329225        -1.337847         0.335455
 H        -0.564891         0.102694         0.593708
 H        -0.552474        -0.718750        -0.962061
 H        -0.596116         1.295626        -1.695340
 H         0.378931         2.268125        -0.730489
 H         0.665533         2.258078        -3.612632
 H         3.177314         2.304113        -3.651945
 H         3.692366         0.204602        -2.623465
 H         4.398594         1.246815        -1.322383
 H         2.987744        -0.601067        -0.446299
