19
Iteration:  2572charge 0 multiplicity 1
 C         0.116671        -0.377575        -0.013506
 C         1.110007         0.502521        -0.755632
 C         0.436284         1.232690        -1.924891
 C         1.355498         1.904580        -2.886682
 O         1.949184         3.185085        -2.160168
 C         2.813521         2.042855        -2.594969
 C         3.497899         1.042046        -1.638661
 C         2.571523         0.423159        -0.543849
 O         1.822967         1.347957         0.210005
 H         0.341030        -1.446240        -0.115364
 H         0.173078        -0.273188         1.154904
 H        -0.943675        -0.114019        -0.181183
 H        -0.220743         0.531840        -2.475599
 H        -0.228338         2.034569        -1.554806
 H         1.104084         1.947975        -3.918515
 H         3.479624         2.292903        -3.482975
 H         3.843402         0.220692        -2.247748
 H         4.297331         1.586548        -1.044646
 H         3.016858        -0.401135        -0.021360
