19
Iteration:  2125charge 0 multiplicity 1
 C         0.141634        -0.531367        -0.243823
 C         1.086915         0.620959        -0.690847
 C         0.420200         1.242604        -1.827611
 C         1.350081         1.914220        -2.778198
 O         2.054700         3.079733        -2.194443
 C         2.763368         1.897202        -2.710221
 C         3.508937         1.037476        -1.563222
 C         2.608780         0.615578        -0.527437
 O         1.719909         1.477451         0.262755
 H         0.095584        -1.306781        -1.034760
 H         0.731805        -1.030411         0.749404
 H        -0.890125        -0.222207        -0.008781
 H        -0.321286         0.522162        -2.229478
 H        -0.120087         2.059730        -1.378991
 H         0.833978         2.174233        -3.712400
 H         3.385724         1.966720        -3.543747
 H         3.934340         0.115402        -2.027337
 H         4.414939         1.599771        -1.283830
 H         3.014830        -0.196412         0.088813
