19
Iteration:  3002
 C         0.271366        -0.633502        -0.026926
 C         1.077278         0.492502        -0.663459
 C         0.397135         1.239991        -1.883474
 C         1.355428         2.124119        -2.859480
 O         2.136774         3.251012        -2.393152
 C         2.816944         1.982125        -2.656577
 C         3.401646         1.030759        -1.522626
 C         2.498365         0.438831        -0.467990
 O         1.692004         1.417894         0.223758
 H        -0.184639        -1.293748        -0.816568
 H         0.809602        -1.103583         0.837336
 H        -0.580775        -0.207026         0.402837
 H        -0.125352         0.512084        -2.477292
 H        -0.335099         1.799795        -1.456854
 H         0.964672         2.222806        -3.863306
 H         3.433799         2.022317        -3.518023
 H         3.867611         0.203774        -1.994514
 H         4.192954         1.620407        -0.982493
 H         2.912920        -0.416088         0.152940
