19
Iteration:  1632charge 0 multiplicity 1
 C         0.306917        -0.628038        -0.140014
 C         1.052075         0.556198        -0.694198
 C         0.376628         1.396581        -1.759966
 C         1.263087         2.066895        -2.753000
 O         2.180444         3.076222        -2.228576
 C         2.724241         1.783152        -2.768210
 C         3.466567         1.090351        -1.605623
 C         2.510400         0.576797        -0.560272
 O         1.746685         1.404690         0.245168
 H        -0.303831        -0.301079         0.631993
 H        -0.441931        -1.086672        -0.857451
 H         0.912947        -1.411042         0.088338
 H        -0.347043         0.816492        -2.276319
 H        -0.244219         2.269131        -1.305046
 H         0.809246         2.290996        -3.732204
 H         3.255743         1.963545        -3.780669
 H         4.162231         0.252183        -1.883981
 H         4.101015         1.857691        -1.090811
 H         2.899424        -0.297734        -0.069848
