19
Iteration:   775
 C         0.190835        -0.637685        -0.147406
 C         1.099260         0.562414        -0.637965
 C         0.381062         1.587195        -1.558418
 C         1.214121         2.334480        -2.545988
 O         2.265186         3.231072        -2.112070
 C         2.667630         1.981868        -2.754732
 C         3.296086         0.790813        -2.060529
 C         2.533967         0.321055        -0.775090
 O         1.986303         1.229512         0.339809
 H        -0.778229        -0.417882         0.143392
 H         0.159675        -1.352391        -0.924789
 H         0.684456        -1.099546         0.795704
 H        -0.601941         1.060084        -2.088483
 H        -0.179451         2.328882        -0.966669
 H         0.651681         2.544940        -3.493606
 H         2.953290         2.225647        -3.878305
 H         3.340690        -0.067908        -2.720381
 H         4.361058         0.983999        -1.786944
 H         2.840531        -0.699823        -0.338102
