19
Iteration:   767charge 0 multiplicity 1
 C         0.309499        -0.672396        -0.185411
 C         1.074131         0.623801        -0.633121
 C         0.356588         1.686704        -1.555539
 C         1.246491         2.306915        -2.554005
 O         2.247627         3.238899        -2.122052
 C         2.571002         1.911138        -2.747772
 C         3.308329         0.766722        -2.002377
 C         2.458555         0.347606        -0.815618
 O         2.008779         1.213370         0.368604
 H        -0.783100        -0.536489        -0.081306
 H         0.193859        -1.369417        -1.009703
 H         0.831888        -1.068131         0.737077
 H        -0.301608         1.071330        -2.146743
 H        -0.115632         2.405976        -0.847240
 H         0.805907         2.561635        -3.506583
 H         3.070021         2.103873        -3.744482
 H         3.274429        -0.136367        -2.659329
 H         4.351429         0.889487        -1.782207
 H         2.722002        -0.645562        -0.352855
