19
Iteration:   317
 C         0.188705        -0.345317         0.145271
 C         1.023326         0.491129        -0.779376
 C         0.315718         1.412948        -1.765172
 C         1.211307         2.273549        -2.653317
 O         2.164806         3.116443        -1.947921
 C         2.720317         2.019888        -2.747894
 C         3.446092         0.981864        -1.841779
 C         2.467114         0.250455        -0.921505
 O         2.054050         1.137619         0.121614
 H         0.703841        -1.251146         0.647506
 H         0.094957         0.414162         0.910016
 H        -0.958021        -0.650356        -0.189561
 H        -0.242677         0.659619        -2.450888
 H        -0.423560         1.958812        -1.167717
 H         0.819927         2.708255        -3.494668
 H         3.271102         2.257992        -3.582790
 H         4.005278         0.223481        -2.422362
 H         4.043512         1.472626        -1.115048
 H         2.759084        -0.729656        -0.538073
