19
Iteration:  1542charge 0 multiplicity 1
 C         0.018323        -0.442636         0.000755
 C         1.064765         0.510601        -0.649545
 C         0.463493         1.228964        -1.861415
 C         1.288922         2.105110        -2.669794
 O         2.057561         3.108912        -2.183015
 C         2.794104         1.944064        -2.736690
 C         3.491931         1.115561        -1.747859
 C         2.554537         0.438054        -0.685913
 O         1.924192         1.322402         0.327470
 H        -0.881238        -0.487926        -0.702633
 H         0.369053        -1.490343         0.137412
 H        -0.280297        -0.000634         0.859015
 H         0.217045         0.451404        -2.586760
 H        -0.616632         1.673264        -1.730186
 H         0.850317         2.297769        -3.753719
 H         3.365734         2.463275        -3.677233
 H         3.888622         0.255579        -2.376306
 H         4.327038         1.745741        -1.371535
 H         2.980958        -0.455836        -0.279369
