19
Iteration:  1865
 C         0.172385        -0.585103         0.011834
 C         1.056318         0.430742        -0.702783
 C         0.480836         1.311485        -1.867336
 C         1.366626         1.999608        -2.875700
 O         2.091209         3.201398        -2.474020
 C         2.790385         1.905518        -2.666141
 C         3.423862         1.208425        -1.462628
 C         2.526952         0.513929        -0.511402
 O         1.718068         1.317656         0.309863
 H        -0.516361        -0.967380        -0.742126
 H         0.743822        -1.420323         0.317144
 H        -0.349584        -0.033936         0.784655
 H        -0.106718         0.832285        -2.543291
 H        -0.122317         2.091368        -1.377388
 H         0.812825         2.158279        -3.879513
 H         3.499450         1.812436        -3.599181
 H         4.091794         0.440270        -1.902503
 H         4.157024         1.844073        -0.941278
 H         3.064837        -0.325809         0.008411
