19
Iteration:  4047charge 0 multiplicity 1
 C         0.225757        -0.684176        -0.229638
 C         1.021098         0.547223        -0.627312
 C         0.343318         1.421711        -1.778171
 C         1.275899         2.062650        -2.782955
 O         2.219261         3.101668        -2.480631
 C         2.739924         1.753236        -2.711861
 C         3.421635         1.252067        -1.467501
 C         2.534511         0.559629        -0.541549
 O         1.842784         1.332872         0.399787
 H        -0.150979        -1.201077        -1.089057
 H         0.732552        -1.241368         0.462139
 H        -0.725622        -0.395703         0.195834
 H        -0.241906         0.702495        -2.528769
 H        -0.387345         2.024814        -1.355285
 H         0.854437         2.298617        -3.796356
 H         3.194251         1.822569        -3.723461
 H         4.251974         0.580287        -1.624214
 H         3.773296         2.085821        -0.818023
 H         3.003067        -0.425784        -0.147786
