19
Iteration:   321
 C         0.179255        -0.340242         0.130824
 C         0.996991         0.443255        -0.811320
 C         0.349471         1.423080        -1.712943
 C         1.206848         2.266901        -2.658616
 O         2.156055         3.117920        -1.964266
 C         2.740556         2.005034        -2.730247
 C         3.436329         0.970055        -1.849851
 C         2.510392         0.254119        -0.912319
 O         2.013106         1.144464         0.110686
 H         0.727160        -1.233496         0.627928
 H         0.053260         0.365921         0.973596
 H        -0.786665        -0.548343        -0.146952
 H        -0.219604         0.773992        -2.315451
 H        -0.353090         2.044833        -1.157781
 H         0.645924         2.824521        -3.518058
 H         3.323476         2.407445        -3.668395
 H         3.975706         0.211117        -2.423067
 H         4.168948         1.530588        -1.147712
 H         2.763984        -0.702354        -0.424738
