19
Iteration:  3685charge 0 multiplicity 1
 C         0.126481        -0.599407        -0.087405
 C         0.980573         0.577234        -0.610470
 C         0.417783         1.392121        -1.897687
 C         1.369365         1.927603        -2.923312
 O         2.077210         3.141501        -2.355947
 C         2.837984         1.926198        -2.751121
 C         3.506226         1.191604        -1.506730
 C         2.523717         0.441776        -0.562980
 O         1.806772         1.277121         0.381036
 H         0.040765        -1.381567        -0.841699
 H         0.549706        -1.015660         0.918674
 H        -0.940111        -0.226701         0.145690
 H        -0.492418         0.905864        -2.248520
 H        -0.001631         2.480696        -1.393389
 H         0.899157         2.018291        -3.876209
 H         3.474070         2.237350        -3.590347
 H         4.361806         0.586187        -1.849916
 H         3.893673         1.956385        -0.811815
 H         2.962114        -0.399593        -0.167192
