19
Iteration:   661charge 0 multiplicity 1
 C         0.178899        -0.403556         0.049234
 C         1.018156         0.652368        -0.626227
 C         0.357878         1.609209        -1.622528
 C         1.288193         2.162641        -2.721448
 O         2.050190         3.231385        -2.192986
 C         2.783770         2.065172        -2.739887
 C         3.403938         1.010420        -1.772819
 C         2.387752         0.173761        -0.923524
 O         2.134076         0.870952         0.263455
 H        -0.162229         0.140384         1.021841
 H        -0.651041        -0.900451        -0.550141
 H         0.757661        -1.140054         0.428604
 H        -0.462561         0.851251        -2.206103
 H        -0.324766         2.449502        -1.294047
 H         0.852293         2.477648        -3.673472
 H         3.334868         2.278177        -3.597158
 H         4.065211         0.424364        -2.452678
 H         4.063679         1.529490        -1.038163
 H         2.601180        -0.848540        -0.865296
