19
Iteration:   547
 C         0.311860        -0.553929         0.014115
 C         1.042178         0.543132        -0.758761
 C         0.271633         1.573487        -1.694066
 C         1.252406         2.313104        -2.616732
 O         2.293724         3.106231        -1.890186
 C         2.677906         1.967734        -2.720809
 C         3.218794         0.803808        -2.015670
 C         2.480871         0.336123        -0.784007
 O         1.984541         1.274350         0.141882
 H        -0.737834        -0.500072         0.162169
 H         0.591312        -1.456169        -0.468914
 H         0.713253        -0.522967         1.112405
 H        -0.219013         0.876650        -2.462678
 H        -0.205661         2.383711        -1.037517
 H         0.807131         2.892024        -3.430572
 H         3.183730         2.290922        -3.638682
 H         3.151534        -0.143740        -2.681493
 H         4.261373         1.030232        -1.741788
 H         2.977970        -0.590883        -0.309778
