19
Iteration:  2651charge 0 multiplicity 1
 C         0.242205        -0.572577        -0.014791
 C         1.072160         0.563360        -0.733800
 C         0.428184         1.209836        -2.001902
 C         1.344363         2.043143        -2.784834
 O         2.133866         2.991858        -2.013344
 C         2.721730         1.869380        -2.688894
 C         3.494178         1.073502        -1.690489
 C         2.566891         0.618760        -0.493257
 O         1.658940         1.516825         0.089175
 H        -0.501573        -1.115239        -0.774535
 H         0.790117        -1.229231         0.610365
 H        -0.483653        -0.007941         0.664517
 H        -0.164904         0.443615        -2.542387
 H        -0.391693         1.909129        -1.547463
 H         0.825742         2.426246        -3.618801
 H         3.380963         2.012566        -3.532090
 H         3.995616         0.184222        -2.063444
 H         4.391044         1.668341        -1.259228
 H         3.070766         0.056312         0.356304
