19
Iteration:   924charge 0 multiplicity 1
 C         0.206818        -0.587697        -0.029572
 C         1.036544         0.572424        -0.630661
 C         0.331988         1.533841        -1.657310
 C         1.185841         2.393385        -2.453494
 O         2.368277         3.046961        -2.026376
 C         2.583791         1.886559        -2.786249
 C         3.344528         0.954574        -2.013367
 C         2.480665         0.379309        -0.888724
 O         2.019484         1.221825         0.215605
 H        -0.753872        -0.192081         0.481977
 H         0.005324        -1.499559        -0.669073
 H         0.862532        -0.964776         0.756694
 H        -0.103103         0.950859        -2.676056
 H        -0.668424         1.952493        -1.180306
 H         0.699295         2.856388        -3.311540
 H         3.063246         2.220096        -3.668938
 H         3.616408         0.057635        -2.574834
 H         4.212190         1.397032        -1.564470
 H         2.870624        -0.518546        -0.487586
