19
Iteration:  2493
 C         0.297806        -0.658627        -0.149001
 C         1.046034         0.518600        -0.702719
 C         0.345544         1.375952        -1.763998
 C         1.390065         2.054932        -2.758743
 O         2.156077         3.273010        -2.526689
 C         2.832272         1.840041        -2.661456
 C         3.448804         0.994890        -1.649892
 C         2.533693         0.587005        -0.390521
 O         1.587527         1.372086         0.375546
 H        -0.144532        -1.378306        -0.773353
 H         1.155447        -1.157990         0.478449
 H        -0.544479        -0.431917         0.515719
 H        -0.334261         0.700642        -2.400302
 H        -0.204303         2.128227        -1.299362
 H         0.905751         2.126078        -3.741935
 H         3.454373         1.809483        -3.573922
 H         3.913897         0.141351        -2.122872
 H         4.297667         1.578838        -1.269450
 H         2.901846        -0.230162         0.131298
