19
Iteration:  1216charge 0 multiplicity 1
 C         0.078488        -0.221769        -0.040228
 C         1.160629         0.614588        -0.640651
 C         0.389424         1.298629        -1.825771
 C         1.203460         2.225186        -2.664268
 O         2.097377         3.070063        -1.907914
 C         2.618627         2.001487        -2.702562
 C         3.313417         0.927242        -1.906632
 C         2.663685         0.222231        -0.792511
 O         2.099118         1.225036         0.220187
 H        -0.087679        -1.191570        -0.630924
 H         0.189812        -0.481062         1.078368
 H        -0.828468         0.208702        -0.159241
 H         0.201382         0.389130        -2.555765
 H        -0.472060         1.855081        -1.482084
 H         0.724290         2.738220        -3.415420
 H         3.160501         2.270752        -3.623937
 H         3.586824         0.255452        -2.737910
 H         4.285968         1.368373        -1.565702
 H         3.010641        -0.799033        -0.405226
