19
Iteration:  3630
 C         0.152162        -0.566669         0.032319
 C         1.045580         0.532789        -0.644989
 C         0.543167         1.178878        -1.991105
 C         1.336021         2.153416        -2.837883
 O         2.124169         3.110313        -2.151329
 C         2.827739         1.987662        -2.651814
 C         3.421854         0.964466        -1.672069
 C         2.543027         0.509622        -0.507120
 O         1.663376         1.480613         0.163796
 H        -0.038879        -1.480927        -0.553862
 H         0.715655        -0.811768         1.008865
 H        -0.860288        -0.080733         0.322285
 H         0.255257         0.345180        -2.679401
 H        -0.537227         1.541068        -1.801438
 H         0.726688         2.373938        -3.691365
 H         3.599911         2.344357        -3.359496
 H         3.703654         0.139032        -2.335780
 H         4.377583         1.348624        -1.299086
 H         3.055487        -0.137123         0.076011
