19
Iteration:  4034
 C         0.156238        -0.611618        -0.202273
 C         1.042680         0.593987        -0.630065
 C         0.388447         1.298574        -1.753161
 C         1.304545         2.045666        -2.727136
 O         2.177333         3.150091        -2.487757
 C         2.790107         1.900725        -2.733090
 C         3.480832         1.239135        -1.533053
 C         2.459921         0.467850        -0.573479
 O         1.801008         1.323535         0.427267
 H         0.143066        -1.230369        -1.014913
 H         0.582542        -1.264809         0.565451
 H        -0.826907        -0.225436         0.161063
 H        -0.024873         0.382162        -2.368939
 H        -0.389763         1.896810        -1.527002
 H         0.806894         2.089496        -3.682275
 H         3.444376         1.637039        -3.600689
 H         4.149892         0.542073        -1.996112
 H         4.102359         2.019787        -1.072194
 H         2.922350        -0.478404        -0.054319
