19
Iteration:  3862
 C         0.277290        -0.459905        -0.110250
 C         1.073217         0.613889        -0.751501
 C         0.295949         1.366013        -1.827109
 C         1.337463         1.980417        -2.811152
 O         2.077481         3.083489        -2.305918
 C         2.813863         1.831748        -2.697363
 C         3.523413         1.166938        -1.462120
 C         2.488621         0.390965        -0.592327
 O         1.745536         1.324687         0.276910
 H         0.084490        -1.315726        -0.878595
 H         0.886961        -0.872254         0.690311
 H        -0.751740        -0.147202         0.206115
 H        -0.284976         0.701563        -2.330663
 H        -0.370767         2.186408        -1.329029
 H         1.016784         1.996331        -3.872049
 H         3.372628         2.177032        -3.576681
 H         4.409542         0.561355        -1.774044
 H         3.900491         2.078270        -0.967910
 H         2.883178        -0.431174        -0.070696
