19
Iteration:  1689charge 0 multiplicity 1
 C         0.108768        -0.565532         0.043130
 C         1.048278         0.515656        -0.633201
 C         0.447141         1.218283        -1.917365
 C         1.391574         2.056910        -2.781593
 O         2.043341         3.200295        -2.283174
 C         2.848605         2.025441        -2.690607
 C         3.413465         1.039550        -1.650564
 C         2.550793         0.477484        -0.603712
 O         1.790088         1.397371         0.274371
 H         0.527634        -0.868354         0.919196
 H        -0.990056        -0.267965        -0.007654
 H         0.304588        -1.466041        -0.469899
 H        -0.074106         0.491283        -2.513325
 H        -0.400573         1.948282        -1.536533
 H         1.141494         2.012249        -3.805658
 H         3.306797         2.160004        -3.659565
 H         3.843661         0.187658        -2.242760
 H         4.245856         1.507714        -1.067944
 H         3.090246        -0.321048        -0.053244
