19
Iteration:  2756
 C         0.059085        -0.648238        -0.238894
 C         1.086827         0.521600        -0.659416
 C         0.381763         1.457916        -1.665124
 C         1.306038         1.872090        -2.745824
 O         2.095626         3.085942        -2.535858
 C         2.846403         1.901905        -2.730875
 C         3.456500         1.337378        -1.436931
 C         2.578880         0.482317        -0.575630
 O         1.840160         1.291572         0.351858
 H         0.168682        -1.513717        -0.835327
 H         0.248276        -1.063848         0.859252
 H        -0.939744        -0.191884        -0.252836
 H        -0.571915         1.114214        -2.185622
 H         0.117018         2.319958        -1.080587
 H         0.757932         2.055130        -3.794913
 H         3.412410         1.833494        -3.778441
 H         4.393375         0.699037        -1.740252
 H         3.832692         2.179764        -0.857387
 H         3.061774        -0.426752        -0.149701
