19
Iteration:   939
 C         0.301698        -0.606188        -0.049454
 C         0.994252         0.570883        -0.736155
 C         0.256615         1.569917        -1.587425
 C         1.245250         2.327362        -2.543978
 O         2.354091         3.172918        -2.029781
 C         2.619714         1.942180        -2.834555
 C         3.313421         0.853805        -1.955455
 C         2.469218         0.365040        -0.811024
 O         1.991333         1.182001         0.234794
 H        -0.693600        -0.380520         0.223278
 H         0.342873        -1.454957        -0.695147
 H         0.789261        -0.844574         1.050766
 H        -0.486584         0.993495        -2.077460
 H        -0.248947         2.304881        -1.011358
 H         0.725067         2.911728        -3.382336
 H         2.933759         1.965553        -3.878923
 H         3.655871         0.002824        -2.587094
 H         4.289844         1.344222        -1.600785
 H         2.811322        -0.646760        -0.486548
