19
Iteration:   742
 C         0.324985        -0.635227        -0.272770
 C         1.038102         0.667595        -0.631671
 C         0.285242         1.713691        -1.479465
 C         1.157909         2.296969        -2.567011
 O         2.350341         3.078047        -2.176835
 C         2.584001         1.951288        -2.834042
 C         3.250748         0.881490        -1.887920
 C         2.476055         0.305389        -0.743772
 O         2.031871         1.167529         0.332528
 H        -0.665615        -0.682590        -0.083951
 H         0.450802        -1.216513        -1.123471
 H         0.968417        -1.060460         0.583475
 H        -0.683292         1.131164        -1.883365
 H         0.111927         2.483706        -0.730580
 H         0.696196         2.744762        -3.483288
 H         3.148737         2.063677        -3.896174
 H         3.581547         0.021299        -2.447951
 H         4.176251         1.321956        -1.448639
 H         2.740475        -0.760546        -0.357013
