19
Iteration:  2263
 C         0.154586        -0.516094        -0.014788
 C         0.997591         0.550625        -0.731903
 C         0.407886         1.240868        -1.926675
 C         1.378833         2.004950        -2.779432
 O         2.084596         3.137696        -2.294101
 C         2.884309         1.955362        -2.609411
 C         3.473287         1.134784        -1.558092
 C         2.468339         0.488450        -0.578038
 O         1.797786         1.341564         0.213226
 H        -0.433230        -1.289143        -0.506885
 H         0.800555        -0.959419         0.736781
 H        -0.541792         0.167927         0.508885
 H        -0.063784         0.492368        -2.552040
 H        -0.480733         1.911485        -1.655728
 H         1.083104         2.024325        -3.799031
 H         3.488789         2.106191        -3.525431
 H         4.141666         0.350370        -1.882564
 H         4.095740         1.853488        -0.962100
 H         2.650001        -0.480509        -0.079148
