19
Iteration:  2170
 C         0.350774        -0.702837        -0.015232
 C         0.906851         0.543907        -0.630744
 C         0.379397         1.331738        -1.823516
 C         1.417546         2.112743        -2.759936
 O         2.274348         3.220793        -2.436936
 C         2.791103         1.846941        -2.731247
 C         3.394346         1.117626        -1.554400
 C         2.382641         0.503624        -0.579202
 O         1.688287         1.395634         0.310306
 H         0.446593        -1.583691        -0.759500
 H         0.948773        -1.094955         0.956724
 H        -0.759818        -0.611939        -0.076699
 H        -0.283569         0.716666        -2.542341
 H        -0.275134         2.063431        -1.414208
 H         0.966598         2.262923        -3.795382
 H         3.305329         1.817285        -3.680854
 H         4.099195         0.290489        -1.802444
 H         3.984924         1.829336        -0.955188
 H         2.727691        -0.436162        -0.161078
