19
Iteration:  2563
 C         0.086210        -0.378617        -0.036816
 C         1.103226         0.597440        -0.770305
 C         0.374719         1.267412        -1.876203
 C         1.319602         1.920028        -2.838778
 O         2.013549         3.064191        -2.206764
 C         2.788981         1.979578        -2.554276
 C         3.451435         1.117993        -1.573602
 C         2.640198         0.447917        -0.615442
 O         1.841048         1.333767         0.191188
 H         0.284194        -1.537311        -0.338781
 H         0.313631        -0.215029         1.055909
 H        -0.995433        -0.350855        -0.389476
 H        -0.093680         0.485255        -2.379957
 H        -0.400049         1.966101        -1.365551
 H         1.101843         1.928680        -3.910587
 H         3.481345         2.440859        -3.301875
 H         4.075417         0.356898        -2.107455
 H         4.347348         1.739531        -1.147402
 H         3.072237        -0.452411        -0.069236
