19
Iteration:  2247charge 0 multiplicity 1
 C         0.056511        -0.408430        -0.094714
 C         1.051974         0.573965        -0.689248
 C         0.349084         1.276188        -1.879337
 C         1.377107         1.877637        -2.816579
 O         2.026204         3.065974        -2.244637
 C         2.825533         1.916650        -2.637407
 C         3.582491         1.220925        -1.493124
 C         2.573539         0.420224        -0.677675
 O         1.809459         1.383530         0.259404
 H        -0.263969        -0.994720        -1.013643
 H         0.403398        -1.242471         0.593866
 H        -0.786962         0.000569         0.496020
 H        -0.204132         0.461979        -2.428289
 H        -0.272302         2.055848        -1.514227
 H         0.924828         2.070610        -3.879481
 H         3.458905         2.029729        -3.527966
 H         4.381919         0.589793        -1.959392
 H         4.114334         1.844367        -0.767572
 H         3.113292        -0.383339        -0.165325
