19
Iteration:  2532
 C         0.138710        -0.583570        -0.071935
 C         1.034230         0.588927        -0.671319
 C         0.408436         1.277271        -1.844372
 C         1.378212         2.035836        -2.766754
 O         2.145634         3.142411        -2.295757
 C         2.753916         1.866404        -2.820469
 C         3.455431         1.115180        -1.572953
 C         2.515266         0.481022        -0.583356
 O         1.801286         1.394820         0.327943
 H         0.529734        -1.502043        -0.681448
 H         0.392108        -0.676223         0.943465
 H        -0.968313        -0.384513        -0.139722
 H        -0.147410         0.530957        -2.377753
 H        -0.435220         1.925248        -1.395752
 H         0.862497         2.136578        -3.786797
 H         3.365615         2.100538        -3.678682
 H         4.404931         0.491345        -1.671748
 H         3.780288         2.062618        -1.080317
 H         2.892455        -0.499680        -0.060456
