19
Iteration:  3808
 C         0.169414        -0.617504        -0.246765
 C         1.062416         0.509122        -0.580294
 C         0.482771         1.416948        -1.669531
 C         1.329371         1.990589        -2.782856
 O         2.148194         3.235157        -2.733285
 C         2.802422         1.934821        -2.701243
 C         3.364493         1.196306        -1.441797
 C         2.510350         0.415589        -0.500392
 O         1.766755         1.253570         0.482126
 H         0.250353        -1.343501        -1.181266
 H         0.394069        -1.178276         0.670512
 H        -0.892080        -0.272660        -0.158363
 H        -0.300394         0.810612        -2.141192
 H         0.082326         2.321581        -0.982503
 H         0.993210         1.853288        -3.830017
 H         3.219310         1.939859        -3.690720
 H         4.040312         0.458188        -1.916853
 H         3.956306         1.959070        -0.994180
 H         2.999390        -0.365578        -0.072117
