19
Iteration:  3091
 C         0.238432        -0.641994        -0.297872
 C         1.004491         0.534973        -0.622859
 C         0.417895         1.557057        -1.534069
 C         1.283069         2.006665        -2.764385
 O         2.184489         3.157618        -2.862494
 C         2.798500         1.906393        -2.711365
 C         3.508908         1.330363        -1.368762
 C         2.494466         0.431631        -0.510777
 O         1.668070         1.128277         0.445808
 H         0.041303        -1.241302        -1.214251
 H         0.925089        -1.202927         0.470109
 H        -0.673575        -0.519538         0.269815
 H        -0.479978         1.152189        -2.019418
 H         0.036336         2.224076        -0.878288
 H         0.864732         1.721036        -3.695672
 H         3.270323         1.458053        -3.556719
 H         4.333157         0.779350        -1.694447
 H         4.070572         2.114154        -0.738059
 H         3.052976        -0.410033         0.043705
