19
Iteration:  3307charge 0 multiplicity 1
 C         0.264191        -0.680288        -0.479318
 C         1.076277         0.583686        -0.617318
 C         0.530489         1.747811        -1.479420
 C         1.291421         1.846009        -2.775038
 O         2.142817         2.995937        -2.925447
 C         2.804620         1.785571        -2.642662
 C         3.364975         1.483665        -1.346356
 C         2.482031         0.494412        -0.504129
 O         1.668008         1.078317         0.551042
 H        -0.367213        -0.695540        -1.445464
 H         0.921109        -1.658556        -0.187134
 H        -0.536181        -0.562995         0.316174
 H        -0.591147         1.698945        -1.534218
 H         0.904981         2.714562        -0.882098
 H         0.646090         1.546340        -3.645081
 H         3.454178         1.601560        -3.514214
 H         4.423264         1.127446        -1.547145
 H         3.493353         2.383684        -0.698431
 H         2.941776        -0.338885        -0.139812
