19
Iteration:  3424charge 0 multiplicity 1
 C         0.263328        -0.683346        -0.460799
 C         1.092773         0.650607        -0.593890
 C         0.421396         1.632041        -1.572923
 C         1.297195         2.016702        -2.780416
 O         2.097998         3.093239        -2.861359
 C         2.798093         1.790031        -2.712159
 C         3.408609         1.303494        -1.350608
 C         2.479900         0.503205        -0.468696
 O         1.747456         1.125530         0.632500
 H         0.055667        -1.056462        -1.412313
 H         0.797165        -1.352616         0.158488
 H        -0.729649        -0.505101        -0.072301
 H        -0.520582         1.225517        -1.985815
 H         0.186978         2.626365        -1.042973
 H         0.955179         1.493425        -3.743354
 H         3.400921         1.562365        -3.606504
 H         4.156155         0.525696        -1.700731
 H         4.055529         2.047259        -0.891544
 H         3.011268        -0.470285        -0.155657
