19
Iteration:  2636charge 0 multiplicity 1
 C         0.255866        -0.464073        -0.028303
 C         1.070185         0.503019        -0.742452
 C         0.418383         1.138921        -1.926264
 C         1.280364         2.141010        -2.732051
 O         2.125537         2.981640        -2.030141
 C         2.821537         1.881412        -2.737487
 C         3.428595         0.994676        -1.633154
 C         2.544043         0.577593        -0.546602
 O         1.666831         1.573365         0.110682
 H        -0.141137        -1.126212        -0.693506
 H         0.960702        -1.064400         0.662868
 H        -0.531150         0.007010         0.530758
 H         0.480189         0.276168        -2.745396
 H        -0.595297         1.414719        -1.750522
 H         0.910756         2.561245        -3.691612
 H         3.373772         2.302627        -3.653361
 H         3.961559         0.129833        -2.053515
 H         4.167787         1.676435        -1.210502
 H         2.936801        -0.173300         0.088579
