19
Iteration:  4095
 C         0.193883        -0.728946        -0.259445
 C         0.978933         0.537835        -0.642290
 C         0.411165         1.570649        -1.625751
 C         1.387553         1.882114        -2.826834
 O         2.073827         3.181205        -2.682912
 C         2.875831         1.896016        -2.684402
 C         3.490316         1.266699        -1.499006
 C         2.502815         0.582071        -0.469019
 O         1.724169         1.202784         0.479371
 H        -0.192452        -1.280293        -1.196537
 H         0.935499        -1.350022         0.368724
 H        -0.736248        -0.656880         0.290389
 H        -0.528924         1.299743        -1.985631
 H         0.195667         2.634614        -1.025408
 H         0.963177         1.510066        -3.804394
 H         3.410064         1.823682        -3.599103
 H         4.031423         0.448538        -2.115447
 H         4.226127         1.834575        -0.894991
 H         2.873848        -0.332226        -0.090765
