19
Iteration:   835
 C         0.217130        -0.303514         0.168899
 C         1.062727         0.602404        -0.724097
 C         0.298699         1.391340        -1.793425
 C         1.204568         2.293776        -2.633508
 O         2.113829         3.100881        -1.894175
 C         2.686952         2.089176        -2.679938
 C         3.365286         0.921174        -1.834056
 C         2.502750         0.186869        -0.972753
 O         2.139903         1.087541         0.071820
 H        -0.303562         0.372428         0.967501
 H        -0.760352        -0.644441        -0.397259
 H         0.785560        -1.080561         0.501111
 H         0.011103         0.601490        -2.510478
 H        -0.587607         1.997071        -1.375586
 H         0.761537         2.640192        -3.536219
 H         3.283732         2.410499        -3.486508
 H         3.700867         0.166420        -2.584448
 H         4.218124         1.316061        -1.323252
 H         2.821144        -0.825824        -0.851939
