19
Iteration:  4160
 C         0.121438        -0.649715        -0.159254
 C         0.983920         0.504710        -0.645043
 C         0.362025         1.517802        -1.663906
 C         1.300597         1.900208        -2.832220
 O         2.223610         3.067841        -2.583886
 C         2.813213         1.817522        -2.686750
 C         3.481882         1.485307        -1.380604
 C         2.515762         0.496342        -0.682765
 O         1.783182         1.157444         0.367977
 H         0.050189        -1.451281        -0.947091
 H         0.621256        -0.900931         0.832001
 H        -0.818313        -0.318150        -0.015672
 H        -0.543832         1.098976        -2.040280
 H         0.062642         2.393345        -0.975206
 H         1.003471         1.902555        -3.916889
 H         3.484252         1.825794        -3.505861
 H         4.537354         1.049403        -1.449507
 H         3.667652         2.534182        -0.906199
 H         2.917152        -0.466274        -0.410264
