19
Iteration:  1557charge 0 multiplicity 1
 C         0.022747        -0.397394        -0.088475
 C         1.090659         0.582073        -0.613647
 C         0.517609         1.202239        -1.855755
 C         1.285088         2.077819        -2.807758
 O         2.063606         3.231021        -2.250074
 C         2.728741         2.010815        -2.748574
 C         3.413670         1.062041        -1.733610
 C         2.571305         0.440432        -0.591498
 O         1.936754         1.208767         0.402250
 H        -0.919688        -0.381972        -0.643800
 H         0.481671        -1.560477         0.010392
 H        -0.068525        -0.275657         1.066456
 H         0.294856         0.278353        -2.420704
 H        -0.523591         1.644654        -1.569453
 H         0.758407         2.335391        -3.674994
 H         3.196631         1.964903        -3.671851
 H         3.959507         0.254846        -2.264948
 H         4.250559         1.582759        -1.203490
 H         3.046587        -0.458149        -0.172618
