19
Iteration:  3198charge 0 multiplicity 1
 C         0.126460        -0.635593        -0.351570
 C         1.068841         0.515468        -0.653594
 C         0.577654         1.652902        -1.544109
 C         1.361961         1.906325        -2.760779
 O         2.112498         3.148294        -2.892282
 C         2.845228         1.821016        -2.769937
 C         3.319196         1.484740        -1.388476
 C         2.567441         0.480587        -0.502023
 O         1.689274         0.993284         0.603447
 H         0.170570        -1.476808        -1.081012
 H         0.470864        -1.183377         0.594409
 H        -0.839720        -0.313591        -0.290311
 H        -0.537129         1.606642        -1.573833
 H         0.926090         2.493099        -0.762016
 H         0.942583         1.507741        -3.688608
 H         3.302498         1.343532        -3.604624
 H         4.336017         1.189916        -1.415786
 H         3.099270         2.482161        -1.008624
 H         2.933974        -0.479344        -0.300916
