19
Iteration:   889
 C         0.124262        -0.380343         0.045594
 C         1.089001         0.451606        -0.744769
 C         0.407962         1.329122        -1.742586
 C         1.215126         2.261044        -2.558885
 O         2.208994         3.192550        -1.905678
 C         2.642189         2.078562        -2.667887
 C         3.277655         0.845661        -2.037192
 C         2.560283         0.300938        -0.827496
 O         2.084029         1.233814         0.159283
 H        -0.285084         0.295094         0.895756
 H        -0.777541        -0.684606        -0.595654
 H         0.557106        -1.153987         0.541655
 H        -0.227138         0.637845        -2.551682
 H        -0.404794         1.962816        -1.183666
 H         0.709854         2.642248        -3.400502
 H         3.250517         2.358195        -3.587595
 H         3.300477         0.113584        -2.874951
 H         4.312761         1.062492        -1.879259
 H         3.128512        -0.546386        -0.400189
