19
Iteration:  4465charge 0 multiplicity 1
 C         0.178090        -0.779753        -0.376288
 C         0.995305         0.630110        -0.595633
 C         0.381999         1.587231        -1.666872
 C         1.293506         1.890603        -2.817110
 O         2.152405         3.061056        -2.509921
 C         2.794982         1.841555        -2.712316
 C         3.484047         1.236982        -1.452581
 C         2.547795         0.541767        -0.530431
 O         1.776345         1.337460         0.434758
 H         0.487173        -1.615925        -1.100954
 H         0.285226        -1.135943         0.756640
 H        -0.794667        -0.498535        -0.537027
 H        -0.567223         1.138823        -2.045375
 H         0.156003         2.482266        -1.042893
 H         0.823622         1.985285        -3.809601
 H         3.391432         1.807215        -3.611175
 H         4.234134         0.502842        -1.771907
 H         4.026268         2.090672        -1.109152
 H         3.024153        -0.365039        -0.097823
