19
Iteration:  4810charge 0 multiplicity 1
 C         0.233742        -0.764225        -0.158248
 C         0.995429         0.538238        -0.670692
 C         0.328981         1.476900        -1.740435
 C         1.380676         1.994896        -2.829490
 O         2.139986         3.119052        -2.398764
 C         2.852867         1.896393        -2.672459
 C         3.463409         1.132286        -1.555182
 C         2.471985         0.543849        -0.547060
 O         1.748907         1.399059         0.343612
 H         0.082806        -1.191432        -1.123511
 H         0.859786        -1.275582         0.590097
 H        -0.762802        -0.448301         0.345727
 H        -0.514852         0.829034        -2.293616
 H        -0.199758         2.352834        -1.398523
 H         0.942536         2.104980        -3.887260
 H         3.463913         1.908473        -3.666838
 H         4.041795         0.318895        -1.895523
 H         4.198916         1.754096        -1.018617
 H         2.974372        -0.308747        -0.072701
