19
Iteration:   375
 C         0.240165        -0.538406        -0.179597
 C         1.067708         0.674600        -0.537975
 C         0.380291         1.494944        -1.629202
 C         1.233833         2.315973        -2.585419
 O         2.229201         3.155819        -2.162173
 C         2.680873         1.956748        -2.801957
 C         3.242958         0.875816        -1.900363
 C         2.466428         0.314018        -0.744916
 O         2.050998         1.193943         0.343114
 H         0.968467        -1.222118         0.538556
 H        -0.770400        -0.462151         0.337076
 H        -0.043435        -1.015451        -1.147863
 H        -0.215926         0.826918        -2.267351
 H        -0.415761         2.141386        -1.240678
 H         0.592473         2.560412        -3.498191
 H         3.047569         2.107311        -3.876187
 H         3.461029         0.028760        -2.568812
 H         4.329631         1.127864        -1.656830
 H         2.864930        -0.657578        -0.335003
