19
Iteration:   947charge 0 multiplicity 1
 C         0.336963        -0.562450        -0.079329
 C         1.005140         0.547626        -0.678713
 C         0.339067         1.588358        -1.553903
 C         1.206453         2.298904        -2.578303
 O         2.307233         3.196360        -2.093384
 C         2.673016         1.964116        -2.806063
 C         3.300181         0.879948        -1.968305
 C         2.450349         0.257501        -0.773796
 O         1.949524         1.173321         0.215492
 H        -0.766481        -0.450616         0.071674
 H         0.559215        -1.431876        -0.712884
 H         0.734753        -0.838543         0.942646
 H        -0.775541         1.303800        -1.968397
 H         0.015979         2.366373        -0.736588
 H         0.688675         2.875536        -3.370151
 H         3.184590         2.110567        -3.714422
 H         3.462615         0.041613        -2.659275
 H         4.277871         1.199019        -1.601358
 H         2.821919        -0.630458        -0.329785
