19
Iteration:  1916
 C         0.168770        -0.539177        -0.185661
 C         1.064630         0.613674        -0.642006
 C         0.359733         1.371721        -1.787236
 C         1.383366         1.937996        -2.878465
 O         2.020727         3.078886        -2.421111
 C         2.845270         1.882975        -2.704507
 C         3.430024         1.208875        -1.514269
 C         2.545073         0.511973        -0.522221
 O         1.818910         1.275252         0.401450
 H         0.091473        -1.345784        -0.895689
 H         0.587992        -0.926194         0.902334
 H        -0.786538        -0.055556        -0.047002
 H        -0.399879         0.707152        -2.435159
 H        -0.221873         2.200073        -1.405684
 H         1.041440         1.814179        -3.941048
 H         3.529648         1.980695        -3.515872
 H         4.259277         0.587678        -1.854536
 H         3.949393         2.015547        -0.953498
 H         2.986175        -0.352897        -0.113495
