19
Iteration:  1054
 C         0.147464        -0.594768         0.026755
 C         0.993680         0.540381        -0.662649
 C         0.458718         1.618468        -1.509050
 C         1.292585         2.190935        -2.599519
 O         2.197763         3.316288        -2.356848
 C         2.686572         1.957521        -2.744321
 C         3.377871         1.060250        -1.784101
 C         2.472339         0.295271        -0.902697
 O         1.962167         1.001242         0.244596
 H         0.150064        -0.461638         1.194537
 H        -0.889564        -0.740570        -0.444136
 H         0.662394        -1.508102        -0.121675
 H        -0.408796         1.286613        -1.889224
 H         0.298468         2.404616        -0.787404
 H         0.682617         2.293129        -3.492369
 H         3.065232         1.923666        -3.851282
 H         3.970300         0.295216        -2.308314
 H         4.105174         1.530447        -1.120443
 H         2.697863        -0.770923        -0.670061
