19
Iteration:  4797
 C         0.222010        -0.768448        -0.218268
 C         1.033931         0.550340        -0.682444
 C         0.376227         1.566175        -1.700905
 C         1.340412         1.961282        -2.816299
 O         2.132422         3.134633        -2.480190
 C         2.846576         1.905348        -2.690977
 C         3.456453         1.144142        -1.510812
 C         2.518201         0.542885        -0.524959
 O         1.688558         1.368330         0.364439
 H         0.247544        -1.765234        -0.755643
 H         0.838541        -1.180321         0.542046
 H        -0.851390        -0.718488         0.091129
 H        -0.628364         1.175715        -2.067813
 H         0.246468         2.336309        -1.018711
 H         0.976496         1.891582        -3.963773
 H         3.469010         1.849717        -3.668339
 H         3.838010         0.281217        -2.072890
 H         4.269107         1.666179        -0.973686
 H         2.964244        -0.245619         0.084438
