19
Iteration:   781charge 0 multiplicity 1
 C         0.154615        -0.594946        -0.121638
 C         1.070278         0.534673        -0.627013
 C         0.365637         1.512182        -1.540187
 C         1.215242         2.327539        -2.567788
 O         2.272060         3.210468        -2.104123
 C         2.697870         2.029692        -2.785164
 C         3.288590         0.823363        -2.044739
 C         2.569844         0.313370        -0.751040
 O         1.982949         1.210227         0.285689
 H        -0.858548        -0.164630         0.311325
 H         0.184586        -1.434884        -0.914837
 H         0.577871        -1.111397         0.691553
 H        -0.409747         1.106945        -2.059945
 H        -0.141662         2.271310        -0.908125
 H         0.609366         2.748559        -3.378832
 H         3.026810         2.145022        -3.755198
 H         3.299663        -0.006026        -2.805108
 H         4.327588         1.099196        -1.804715
 H         3.008808        -0.583244        -0.408484
