19
Iteration:  3531
 C         0.102720        -0.460885        -0.044214
 C         1.012504         0.565977        -0.692030
 C         0.417334         1.279891        -1.891791
 C         1.404454         1.946391        -2.782503
 O         2.013538         3.162847        -2.332761
 C         2.872605         1.999339        -2.650689
 C         3.517012         1.182087        -1.569873
 C         2.536447         0.408034        -0.664239
 O         1.785554         1.264282         0.361552
 H        -0.014904        -1.396189        -0.672519
 H         0.495949        -0.791594         0.917365
 H        -0.857971         0.156856         0.192261
 H        -0.046948         0.368683        -2.480996
 H        -0.328046         1.958113        -1.658712
 H         0.956028         1.987679        -3.763666
 H         3.439099         2.137231        -3.591078
 H         4.125940         0.409695        -2.029541
 H         4.174502         1.907697        -1.092755
 H         2.948065        -0.471106        -0.122521
