19
Iteration:  4341
 C         0.155136        -0.264685        -0.110266
 C         1.166061         0.598176        -0.746208
 C         0.535530         1.071340        -2.049447
 C         1.261806         2.054204        -2.774483
 O         1.966350         2.982384        -1.948563
 C         2.704229         2.006550        -2.617370
 C         3.464574         0.943526        -1.622404
 C         2.597419         0.438714        -0.552698
 O         1.795603         1.477865         0.131501
 H        -0.061777        -1.040411        -0.816202
 H         0.464276        -0.650838         0.820986
 H        -0.780180         0.445077         0.058385
 H         0.315253         0.162536        -2.492208
 H        -0.523699         1.423152        -1.735016
 H         0.942162         2.222707        -3.771133
 H         3.425705         2.547977        -3.293896
 H         3.861934         0.211593        -2.426118
 H         4.338526         1.455230        -1.086758
 H         3.240708        -0.165681         0.108526
