19
Iteration:  2596charge 0 multiplicity 1
 C         0.107312        -0.469575         0.119180
 C         1.079317         0.519534        -0.686765
 C         0.538253         1.118765        -1.968583
 C         1.349142         2.092839        -2.842800
 O         2.006517         3.162376        -2.208420
 C         2.909648         2.090823        -2.613007
 C         3.393734         0.996465        -1.692699
 C         2.516401         0.439999        -0.595401
 O         1.761189         1.418635         0.197792
 H         0.257534        -1.601387        -0.202210
 H         0.350624        -0.558073         1.187167
 H        -0.971496        -0.137356         0.193551
 H         0.277467         0.333996        -2.619721
 H        -0.464363         1.634310        -1.735444
 H         0.952257         2.161883        -3.848510
 H         3.689921         2.514303        -3.284598
 H         3.526507         0.119536        -2.346585
 H         4.364475         1.322370        -1.157790
 H         3.040793        -0.392394        -0.044190
