19
Iteration:  2477
 C         0.311098        -0.703346        -0.180962
 C         1.039831         0.580032        -0.614088
 C         0.448200         1.446180        -1.746654
 C         1.329074         1.967633        -2.816208
 O         2.109030         3.119126        -2.439764
 C         2.838183         1.894973        -2.699191
 C         3.433999         1.062127        -1.517050
 C         2.486461         0.554732        -0.501096
 O         1.649131         1.439741         0.306040
 H        -0.259686        -1.047368        -1.103026
 H         0.894309        -1.531473         0.083898
 H        -0.364696        -0.485820         0.650783
 H        -0.321803         0.890218        -2.292797
 H        -0.136176         2.319859        -1.272919
 H         0.998634         1.993926        -3.911807
 H         3.414746         1.971968        -3.621550
 H         3.729067         0.107700        -2.045119
 H         4.279921         1.576538        -1.053711
 H         3.023872        -0.207528         0.221111
