19
Iteration:  3265charge 0 multiplicity 1
 C         0.223851        -0.642918        -0.577655
 C         1.068213         0.583532        -0.540497
 C         0.473466         1.712242        -1.434068
 C         1.321319         1.892030        -2.762735
 O         2.145479         2.967269        -2.956073
 C         2.747172         1.787522        -2.715448
 C         3.402779         1.479034        -1.356840
 C         2.584607         0.574232        -0.470591
 O         1.672996         1.052955         0.661084
 H        -0.022935        -0.845168        -1.638511
 H         0.726738        -1.551484        -0.085191
 H        -0.709566        -0.442888        -0.136423
 H        -0.575708         1.435113        -1.831172
 H         0.535336         2.690097        -0.842936
 H         0.758522         1.570838        -3.632252
 H         3.435510         1.478956        -3.532601
 H         4.234938         0.841403        -1.519620
 H         3.652182         2.429784        -0.836041
 H         3.045556        -0.419669        -0.321276
