19
Iteration:  4506charge 0 multiplicity 1
 C         0.249971        -0.686868        -0.239757
 C         1.040323         0.501441        -0.606949
 C         0.449044         1.612667        -1.576490
 C         1.341077         2.012228        -2.819545
 O         2.208904         3.179960        -2.790860
 C         2.813802         1.892438        -2.761222
 C         3.409615         1.368463        -1.445649
 C         2.471556         0.433175        -0.522672
 O         1.669446         1.060015         0.511027
 H         0.635360        -1.661308        -0.453016
 H         0.199770        -0.683412         0.844318
 H        -0.786075        -0.563443        -0.560733
 H        -0.424821         1.273844        -2.028022
 H         0.020126         2.605212        -1.101206
 H         0.853347         1.946361        -3.767440
 H         3.277652         1.472404        -3.647214
 H         4.312072         0.707419        -1.705786
 H         3.716403         2.122156        -0.665800
 H         2.874692        -0.516043        -0.167887
