19
Iteration:  1047charge 0 multiplicity 1
 C         0.163393        -0.575176         0.027078
 C         1.025456         0.493170        -0.648165
 C         0.451607         1.624433        -1.458071
 C         1.208141         2.214824        -2.618253
 O         2.268432         3.288491        -2.358239
 C         2.670825         1.957581        -2.766299
 C         3.401305         1.090847        -1.770453
 C         2.428607         0.268418        -0.900696
 O         1.972521         0.987393         0.234072
 H        -0.073351        -0.278984         0.992411
 H        -0.795815        -0.685463        -0.363577
 H         0.739062        -1.586159        -0.056601
 H        -0.531041         1.109183        -1.997472
 H         0.030244         2.581363        -0.909559
 H         0.702254         2.326080        -3.619823
 H         3.138212         1.977838        -3.668790
 H         4.061480         0.397641        -2.262679
 H         3.976818         1.730711        -1.096899
 H         2.751823        -0.730646        -0.803518
