19
Iteration:  2085charge 0 multiplicity 1
 C         0.153116        -0.386348         0.060379
 C         1.023545         0.523749        -0.719527
 C         0.528879         1.105751        -2.009633
 C         1.414289         2.005606        -2.839072
 O         2.022170         3.243609        -2.260327
 C         2.816717         2.012416        -2.602280
 C         3.460515         1.105394        -1.590271
 C         2.456169         0.402452        -0.561644
 O         1.760250         1.331000         0.253344
 H        -0.254373        -1.211643        -0.589309
 H         0.808930        -0.693401         0.778964
 H        -0.597178         0.032736         0.781944
 H         0.283712         0.163523        -2.673164
 H        -0.445381         1.622228        -1.818584
 H         0.833542         2.200687        -3.858621
 H         3.513085         2.288940        -3.503169
 H         3.882541         0.241702        -2.148698
 H         4.289787         1.515024        -1.010443
 H         2.959020        -0.424689        -0.089931
