19
Iteration:  4962
 C         0.033551        -0.621394        -0.011771
 C         1.034957         0.462168        -0.643451
 C         0.460101         1.153430        -1.863824
 C         1.374626         2.037859        -2.739567
 O         2.173920         3.183647        -2.224605
 C         2.875127         1.975076        -2.698703
 C         3.470432         1.112876        -1.695837
 C         2.579273         0.578547        -0.589553
 O         1.661370         1.425465         0.221415
 H        -0.013176        -1.444604        -0.718720
 H         0.472486        -0.984832         0.933685
 H        -0.918622        -0.034816         0.085593
 H        -0.050432         0.527188        -2.568493
 H        -0.432343         1.906181        -1.457353
 H         0.817233         2.348675        -3.727778
 H         3.468434         2.050727        -3.663010
 H         3.888810         0.140512        -2.189285
 H         4.319524         1.613238        -1.132180
 H         3.182392        -0.095257         0.015840
