19
Iteration:  3011
 C         0.190579        -0.600173        -0.070415
 C         1.051370         0.481288        -0.704298
 C         0.414510         1.254259        -1.883205
 C         1.324429         2.103309        -2.773213
 O         2.103117         3.216137        -2.462579
 C         2.835166         1.936428        -2.636763
 C         3.421342         1.120506        -1.478401
 C         2.568816         0.467122        -0.453453
 O         1.745533         1.376479         0.247150
 H        -0.020338        -1.425281        -0.840278
 H         0.700436        -1.116613         0.704201
 H        -0.726259        -0.220945         0.329182
 H        -0.209824         0.677686        -2.517387
 H        -0.208911         1.985147        -1.305358
 H         0.763842         2.272773        -3.775991
 H         3.466189         1.835914        -3.550213
 H         3.959393         0.259008        -1.998291
 H         4.148509         1.698038        -0.975014
 H         2.909623        -0.441603        -0.018684
