19
Iteration:  3987charge 0 multiplicity 1
 C         0.149663        -0.432152         0.001748
 C         1.073485         0.467466        -0.762719
 C         0.434570         1.211442        -1.971508
 C         1.388625         1.975731        -2.920888
 O         1.972107         3.093273        -2.120221
 C         2.818547         2.070195        -2.594954
 C         3.457658         1.031585        -1.568844
 C         2.562424         0.469423        -0.543173
 O         1.792601         1.409201         0.165756
 H         0.317312        -1.483152        -0.320113
 H         0.565528        -0.470318         1.095118
 H        -0.862783        -0.025576         0.153589
 H        -0.293195         0.715911        -2.568972
 H        -0.153065         2.076052        -1.544543
 H         0.964144         2.092290        -3.920478
 H         3.571998         2.333132        -3.331430
 H         3.839281         0.289348        -2.296942
 H         4.344964         1.460996        -1.107600
 H         2.882422        -0.402532         0.047976
