19
Iteration:  2497
 C         0.282307        -0.649562        -0.121246
 C         1.070337         0.514403        -0.713618
 C         0.355136         1.344997        -1.786888
 C         1.343574         2.060133        -2.755904
 O         2.184711         3.286657        -2.526937
 C         2.823122         1.840494        -2.686066
 C         3.463469         1.009617        -1.615299
 C         2.524159         0.602557        -0.407015
 O         1.588443         1.359066         0.384301
 H        -0.022516        -1.530594        -0.805622
 H         1.071322        -1.150353         0.567375
 H        -0.582147        -0.394862         0.531953
 H        -0.289041         0.758121        -2.360691
 H        -0.290813         2.150525        -1.268404
 H         1.021227         2.196065        -3.771396
 H         3.398628         1.808131        -3.620184
 H         3.790468         0.079117        -2.167880
 H         4.351214         1.615078        -1.236769
 H         2.866658        -0.372271         0.056503
