19
Iteration:  1153charge 0 multiplicity 1
 C         0.286445        -0.546139         0.094592
 C         1.002635         0.441806        -0.775194
 C         0.333740         1.462364        -1.687898
 C         1.296458         2.283191        -2.598406
 O         2.258122         3.225000        -2.059224
 C         2.760128         1.993508        -2.758618
 C         3.329922         0.853008        -1.920270
 C         2.458829         0.336492        -0.778539
 O         1.853207         1.261682         0.132464
 H         0.923497        -1.462746         0.174686
 H         0.208268         0.007963         1.063722
 H        -0.772577        -0.777421        -0.123371
 H        -0.289813         0.896656        -2.300818
 H        -0.312035         2.144701        -1.138512
 H         0.680524         2.854282        -3.299811
 H         3.325559         2.167940        -3.784607
 H         3.858929        -0.076418        -2.332698
 H         4.198375         1.378374        -1.396819
 H         2.820622        -0.660399        -0.332370
