19
Iteration:  2187
 C         0.215945        -0.676685        -0.071646
 C         1.007472         0.601627        -0.628976
 C         0.401140         1.375024        -1.772497
 C         1.305002         2.060680        -2.782714
 O         2.233357         3.182408        -2.531653
 C         2.905195         1.985129        -2.675424
 C         3.376481         1.145894        -1.552004
 C         2.478695         0.427959        -0.601432
 O         1.682681         1.321778         0.359640
 H         0.336716        -1.598157        -0.588891
 H         0.840011        -0.793750         0.756166
 H        -0.814301        -0.569547         0.234471
 H         0.034055         0.554031        -2.359755
 H        -0.581324         1.955184        -1.554225
 H         0.848260         2.117044        -3.711342
 H         3.552652         1.905173        -3.566484
 H         3.925479         0.342384        -2.048255
 H         4.074524         1.606306        -0.814106
 H         2.882534        -0.460375         0.027627
