19
Iteration:  4601
 C         0.248097        -0.747034        -0.407924
 C         0.972612         0.601286        -0.539476
 C         0.507364         1.629383        -1.445414
 C         1.374834         1.929508        -2.790406
 O         2.205031         3.156178        -2.854959
 C         2.798798         1.808423        -2.766471
 C         3.412923         1.389885        -1.414571
 C         2.448240         0.496881        -0.551590
 O         1.672361         1.113043         0.554441
 H         0.076650        -1.402062        -1.259972
 H         0.752203        -1.403613         0.275834
 H        -0.807953        -0.643127         0.118134
 H        -0.615164         1.393294        -1.654490
 H         0.406376         2.538791        -0.938129
 H         0.781632         1.757119        -3.676126
 H         3.256314         1.559065        -3.792375
 H         4.281383         0.787916        -1.586779
 H         3.702206         2.310282        -0.912024
 H         3.009265        -0.358284        -0.170985
