19
Iteration:  2058
 C         0.105531        -0.410134         0.199268
 C         1.072379         0.410265        -0.770936
 C         0.375667         1.090065        -2.073670
 C         1.382480         2.071842        -2.846765
 O         2.061227         3.106174        -2.123239
 C         2.880944         2.002125        -2.632202
 C         3.510339         1.150741        -1.541597
 C         2.515664         0.456428        -0.692019
 O         1.734705         1.398648         0.100829
 H        -0.517733        -1.191540        -0.205101
 H         0.723382        -0.685936         1.265854
 H        -0.511425         0.367033         0.631432
 H         0.093336         0.249365        -2.762671
 H        -0.521331         1.590794        -1.708510
 H         0.920471         2.403405        -3.709519
 H         3.548849         2.323076        -3.339792
 H         4.213019         0.376686        -1.928345
 H         4.133774         1.720859        -0.819708
 H         3.098697        -0.338420        -0.167335
