19
Iteration:    74charge 0 multiplicity 1
 C         0.108754        -0.698203        -0.035017
 C         1.033598         0.413168        -0.623673
 C         0.486611         1.590109        -1.477399
 C         1.258293         2.346060        -2.565564
 O         2.356073         3.256926        -2.368376
 C         2.587729         1.921329        -2.815225
 C         3.357125         1.036044        -1.840440
 C         2.497547         0.401203        -0.774627
 O         1.926265         1.112343         0.265657
 H         0.606516        -1.184383         0.721200
 H        -0.893078        -0.319697         0.267765
 H        -0.235833        -1.392786        -0.924424
 H        -0.464244         1.235844        -2.008569
 H         0.048527         2.286259        -0.775131
 H         0.512388         2.662517        -3.273883
 H         3.067604         1.801679        -3.845129
 H         3.627477         0.095981        -2.467689
 H         4.269386         1.485679        -1.435226
 H         3.038503        -0.544604        -0.420591
