19
Iteration:  1556
 C         0.015329        -0.399863        -0.086100
 C         1.084677         0.577030        -0.619582
 C         0.520393         1.202489        -1.854242
 C         1.293854         2.078040        -2.797156
 O         2.061307         3.224819        -2.244920
 C         2.720230         2.003414        -2.745272
 C         3.421951         1.069247        -1.741413
 C         2.571955         0.440427        -0.595566
 O         1.939646         1.216697         0.404209
 H        -0.952007        -0.404956        -0.619603
 H         0.486295        -1.557680         0.021081
 H        -0.077009        -0.249491         1.010628
 H         0.333761         0.290776        -2.418157
 H        -0.550281         1.668219        -1.592009
 H         0.733034         2.327825        -3.686933
 H         3.230758         1.979431        -3.707775
 H         3.972704         0.249886        -2.285134
 H         4.264794         1.576523        -1.196833
 H         3.042003        -0.437016        -0.183030
