19
Iteration:  2671
 C         0.222802        -0.550044        -0.054460
 C         1.073615         0.493970        -0.722596
 C         0.345045         1.236292        -1.825015
 C         1.397580         1.963423        -2.802248
 O         2.084720         3.077624        -2.225704
 C         2.870243         1.996049        -2.647794
 C         3.521196         1.073133        -1.645047
 C         2.467045         0.583474        -0.557066
 O         1.681021         1.490004         0.201180
 H        -0.413516        -1.095667        -0.796966
 H         0.837107        -1.307651         0.454290
 H        -0.425661        -0.136353         0.751193
 H        -0.317821         0.501414        -2.494984
 H        -0.464394         1.834621        -1.364387
 H         0.997550         2.155190        -3.786286
 H         3.556582         2.207377        -3.546859
 H         3.859318         0.138369        -2.073233
 H         4.430986         1.449787        -1.065772
 H         2.950455        -0.226193        -0.022756
