19
Iteration:  1438
 C         0.050298        -0.450532        -0.129888
 C         1.156601         0.499079        -0.712674
 C         0.430408         1.277412        -1.822545
 C         1.225887         2.176615        -2.668208
 O         2.158073         3.115945        -2.173014
 C         2.655052         1.932084        -2.739187
 C         3.478006         0.951362        -1.847791
 C         2.648498         0.492455        -0.489811
 O         1.841717         1.386062         0.350337
 H         0.502068        -1.398239         0.040694
 H        -0.259099        -0.298107         0.964240
 H        -0.762162        -0.448211        -0.979129
 H         0.131660         0.341687        -2.462397
 H        -0.431045         1.728529        -1.400852
 H         0.736637         2.461072        -3.565641
 H         3.085018         2.133816        -3.772859
 H         3.808001         0.120659        -2.431788
 H         4.429868         1.440817        -1.652407
 H         3.066608        -0.498744        -0.032183
