19
Iteration:  1456
 C         0.141003        -0.513527        -0.095628
 C         1.073897         0.571954        -0.568829
 C         0.459436         1.199964        -1.862226
 C         1.315498         2.178877        -2.706902
 O         2.154384         3.116918        -2.099968
 C         2.748362         1.968467        -2.788091
 C         3.328971         0.960162        -1.791309
 C         2.520312         0.505586        -0.651225
 O         1.877890         1.402680         0.264962
 H         0.473488        -1.609918        -0.117255
 H         0.040912        -0.431638         1.101429
 H        -0.764650        -0.356765        -0.566788
 H         0.288977         0.345813        -2.471386
 H        -0.499983         1.700933        -1.493652
 H         0.686079         2.585332        -3.512782
 H         3.342593         2.117376        -3.652434
 H         3.470922        -0.047544        -2.283153
 H         4.338406         1.229031        -1.411649
 H         3.097608        -0.145264        -0.044216
