19
Iteration:   619
 C         0.097699        -0.439313         0.011514
 C         1.096763         0.477145        -0.712400
 C         0.376850         1.476153        -1.640484
 C         1.178101         2.345017        -2.536228
 O         2.193489         3.172048        -2.027627
 C         2.695871         1.990850        -2.808279
 C         3.379442         0.868703        -1.951809
 C         2.601262         0.243147        -0.766983
 O         1.985166         1.184802         0.121700
 H        -0.385764         0.169905         0.733691
 H        -0.628134        -0.904744        -0.704747
 H         0.519938        -1.200926         0.567060
 H        -0.191265         0.844685        -2.330735
 H        -0.120959         2.110622        -0.973968
 H         0.625287         2.717885        -3.423971
 H         3.240621         2.241584        -3.771127
 H         3.841106         0.073477        -2.457198
 H         4.154951         1.468894        -1.421314
 H         3.019371        -0.625723        -0.253322
