19
Iteration:  2283charge 0 multiplicity 1
 C         0.260712        -0.532015         0.142879
 C         1.053193         0.516634        -0.661759
 C         0.467870         1.188120        -2.015987
 C         1.385197         2.138014        -2.875595
 O         2.184539         3.211669        -2.294233
 C         2.843363         1.990144        -2.643939
 C         3.377033         1.023668        -1.572273
 C         2.507450         0.379834        -0.581319
 O         1.572678         1.396305         0.257728
 H        -0.085648        -1.362860        -0.606901
 H         0.992569        -0.844551         0.789758
 H        -0.719374        -0.127337         0.557224
 H        -0.091931         0.502075        -2.720580
 H        -0.339899         1.724528        -1.628323
 H         1.079719         2.530462        -3.900439
 H         3.402981         2.097061        -3.600995
 H         3.729807         0.191809        -2.204704
 H         4.223383         1.469691        -1.067608
 H         2.986559        -0.205357         0.076051
