19
Iteration:  2931charge 0 multiplicity 1
 C         0.146123        -0.350824        -0.026317
 C         1.137454         0.489898        -0.740479
 C         0.475786         1.030843        -2.014222
 C         1.312583         2.084324        -2.719858
 O         1.959473         3.125018        -1.986416
 C         2.767401         1.955834        -2.634715
 C         3.502061         1.037724        -1.618306
 C         2.575756         0.455190        -0.524042
 O         1.813246         1.499449         0.024992
 H        -0.111044        -1.153700        -0.671284
 H         0.435804        -0.646353         0.998304
 H        -0.837940         0.207443         0.083779
 H         0.345724         0.202975        -2.723656
 H        -0.623517         1.346592        -1.794782
 H         0.763873         2.276908        -3.733631
 H         3.472464         2.235929        -3.507104
 H         3.738164         0.088079        -2.260169
 H         4.402162         1.409455        -1.213042
 H         3.080123        -0.236810         0.156761
