19
Iteration:   544
 C         0.297538        -0.523612         0.007654
 C         1.029116         0.527606        -0.762521
 C         0.273414         1.551850        -1.674036
 C         1.252068         2.311386        -2.583820
 O         2.283742         3.114267        -1.909195
 C         2.687419         1.978485        -2.712036
 C         3.252622         0.807405        -2.017225
 C         2.462253         0.344313        -0.777102
 O         1.992427         1.251403         0.113074
 H        -0.766185        -0.419806         0.104814
 H         0.562025        -1.529305        -0.463449
 H         0.709667        -0.492473         1.161379
 H        -0.345399         0.945052        -2.297549
 H        -0.269794         2.287742        -1.058526
 H         0.830166         2.883770        -3.421298
 H         3.251933         2.241236        -3.696736
 H         3.262814        -0.099102        -2.639106
 H         4.324943         1.017160        -1.788482
 H         3.011400        -0.504403        -0.316258
