19
Iteration:  4059charge 0 multiplicity 1
 C         0.275995        -0.671171        -0.212308
 C         1.078235         0.587783        -0.722945
 C         0.351343         1.503935        -1.724825
 C         1.285966         2.056420        -2.832547
 O         2.219393         3.082050        -2.443893
 C         2.708379         1.743477        -2.732829
 C         3.415713         1.254863        -1.460373
 C         2.532780         0.500943        -0.482631
 O         1.721849         1.300265         0.358221
 H         0.070557        -1.273059        -1.117765
 H         0.935469        -1.325910         0.246369
 H        -0.535957        -0.488692         0.436709
 H        -0.522546         0.838794        -2.098697
 H        -0.041700         2.340080        -1.178460
 H         0.895259         2.127224        -3.899007
 H         3.309977         1.501488        -3.629358
 H         4.381235         0.751135        -1.642142
 H         3.694155         2.265141        -1.110558
 H         3.006806        -0.418082        -0.004249
