19
Iteration:  2768charge 0 multiplicity 1
 C         0.177051        -0.660200        -0.246024
 C         1.039492         0.536242        -0.715127
 C         0.407698         1.525487        -1.650831
 C         1.354384         1.942919        -2.793928
 O         2.088509         3.130761        -2.587746
 C         2.779179         1.885425        -2.691664
 C         3.409473         1.265918        -1.460565
 C         2.541401         0.480183        -0.466980
 O         1.819569         1.280100         0.390160
 H         0.279176        -1.412392        -1.019836
 H         0.570327        -1.008401         0.766970
 H        -0.929972        -0.563586        -0.187505
 H        -0.574310         0.974172        -2.016198
 H         0.123565         2.395208        -1.098781
 H         0.897988         1.764732        -3.879563
 H         3.444841         1.708181        -3.657282
 H         4.097045         0.480050        -1.931430
 H         4.098805         1.949693        -0.895020
 H         2.994100        -0.419404        -0.010118
