19
Iteration:  2419
 C         0.133594        -0.472048        -0.055950
 C         1.065540         0.469303        -0.681354
 C         0.431155         1.222852        -1.899904
 C         1.326372         1.988266        -2.843024
 O         2.167044         3.197936        -2.456774
 C         2.757932         1.956692        -2.648617
 C         3.450827         1.239239        -1.503141
 C         2.487689         0.462108        -0.572510
 O         1.780953         1.248519         0.339055
 H        -0.714227        -0.919694        -0.511937
 H         0.808726        -1.252909         0.502998
 H        -0.378878         0.050912         0.764614
 H        -0.074339         0.492087        -2.444010
 H        -0.272829         1.974009        -1.422571
 H         0.990084         2.072322        -3.829166
 H         3.464502         2.000328        -3.490640
 H         4.247285         0.564780        -1.865994
 H         4.001267         1.966183        -0.810998
 H         2.958492        -0.339209         0.048689
