19
Iteration:  3925
 C         0.177054        -0.442242         0.055891
 C         1.078844         0.455105        -0.705468
 C         0.607752         1.087511        -2.015869
 C         1.327457         2.148160        -2.775800
 O         2.118927         3.120689        -2.050134
 C         2.809359         1.948862        -2.723558
 C         3.395595         1.021870        -1.763766
 C         2.556630         0.539348        -0.534205
 O         1.579614         1.475183         0.212266
 H        -0.306979        -1.107455        -0.574966
 H         0.668674        -0.928197         0.910990
 H        -0.660552         0.160296         0.460336
 H         0.519059         0.155118        -2.799891
 H        -0.393861         1.361130        -1.811743
 H         0.950403         2.420498        -3.734196
 H         3.537814         2.308014        -3.526710
 H         3.540597         0.024626        -2.208849
 H         4.443573         1.268626        -1.377650
 H         3.121211        -0.141055         0.239129
