19
Iteration:  3141charge 0 multiplicity 1
 C         0.281095        -0.613188        -0.434787
 C         1.112118         0.689017        -0.646367
 C         0.521388         1.660492        -1.592676
 C         1.277491         1.860774        -2.843611
 O         2.080470         3.037533        -2.723370
 C         2.777931         1.742928        -2.735527
 C         3.353969         1.367848        -1.342199
 C         2.528730         0.461281        -0.480440
 O         1.727945         1.119173         0.545293
 H        -0.286326        -0.872168        -1.355624
 H         0.888535        -1.371622        -0.038479
 H        -0.462496        -0.538061         0.411668
 H        -0.458862         1.262833        -1.839556
 H         0.257325         2.681280        -1.019405
 H         0.631360         1.875147        -3.757617
 H         3.532549         1.677743        -3.529447
 H         4.456624         1.069595        -1.284517
 H         3.468853         2.320717        -0.884188
 H         2.839537        -0.504832        -0.339659
