19
Iteration:  4664charge 0 multiplicity 1
 C         0.141227        -0.665147        -0.389257
 C         1.022526         0.585903        -0.585275
 C         0.475528         1.594147        -1.540565
 C         1.400489         1.888078        -2.741438
 O         2.070169         3.126407        -2.796880
 C         2.903301         1.861217        -2.754600
 C         3.403662         1.379784        -1.420512
 C         2.491243         0.459993        -0.546805
 O         1.730168         1.116055         0.532184
 H        -0.707701        -0.707901        -1.149374
 H         0.786564        -1.551966        -0.214752
 H        -0.171412        -0.534643         0.588875
 H        -0.652555         1.274643        -1.866345
 H         0.218558         2.508440        -0.981446
 H         0.975377         1.591124        -3.810954
 H         3.680383         1.728184        -3.525137
 H         4.376406         0.869046        -1.541478
 H         3.714935         2.263886        -0.867926
 H         2.950484        -0.424765        -0.051044
