19
Iteration:   870
 C         0.145758        -0.327746         0.164518
 C         1.107925         0.539195        -0.682809
 C         0.371794         1.412668        -1.787459
 C         1.265323         2.255921        -2.681478
 O         1.987666         3.184809        -1.886935
 C         2.798118         2.164561        -2.620652
 C         3.363030         0.803618        -2.021701
 C         2.577288         0.222322        -0.871696
 O         2.054232         1.127525         0.082079
 H        -0.055526         0.175439         1.174275
 H        -0.767102        -0.661974        -0.436747
 H         0.578290        -1.272876         0.591717
 H        -0.197398         0.770989        -2.435590
 H        -0.453602         1.966257        -1.247150
 H         0.882859         2.744659        -3.601160
 H         3.324448         2.582055        -3.388363
 H         3.212054        -0.009430        -2.778434
 H         4.451282         0.748827        -1.816938
 H         2.848729        -0.738568        -0.550395
