19
Iteration:  4446
 C         0.223107        -0.545719        -0.380076
 C         1.026730         0.570321        -0.626736
 C         0.410935         1.427587        -1.669510
 C         1.353706         1.923044        -2.749708
 O         2.097495         3.040455        -2.382885
 C         2.834891         1.797090        -2.743877
 C         3.465897         1.212654        -1.530863
 C         2.513344         0.572484        -0.527468
 O         1.737582         1.367694         0.401398
 H         0.214388        -1.145413        -1.334623
 H         0.552710        -1.233954         0.419998
 H        -0.908811        -0.441597        -0.237031
 H        -0.364002         0.727930        -2.161168
 H        -0.002632         2.263465        -1.206946
 H         0.868654         1.974448        -3.781497
 H         3.167955         1.779880        -3.794450
 H         4.232846         0.546216        -1.806632
 H         4.007410         1.981943        -0.980046
 H         2.962697        -0.321005        -0.056195
