19
Iteration:  4182
 C         0.227266        -0.682415        -0.132776
 C         1.002600         0.516033        -0.654911
 C         0.457231         1.533694        -1.700281
 C         1.418991         1.962278        -2.781013
 O         2.110391         3.193493        -2.676319
 C         2.856616         1.907021        -2.722868
 C         3.372771         1.260627        -1.439093
 C         2.485569         0.442235        -0.546078
 O         1.689068         1.214142         0.401493
 H         0.043910        -1.371435        -1.007701
 H         0.852828        -1.064398         0.754428
 H        -0.704563        -0.400643         0.142317
 H        -0.361894         1.075768        -2.192836
 H         0.038384         2.400890        -1.040956
 H         1.090110         1.875469        -3.863125
 H         3.386851         1.705994        -3.616537
 H         4.347942         0.700979        -1.662478
 H         3.806310         1.925264        -0.575501
 H         2.886850        -0.493466        -0.213454
