19
Iteration:  1826charge 0 multiplicity 1
 C         0.309078        -0.563632        -0.095881
 C         0.991861         0.598228        -0.690137
 C         0.423335         1.254387        -1.893882
 C         1.360277         1.979780        -2.729162
 O         2.070995         2.992105        -2.169325
 C         2.835362         1.818848        -2.702450
 C         3.522292         1.187192        -1.535287
 C         2.422568         0.587695        -0.629744
 O         1.728902         1.506889         0.157701
 H        -0.413740        -1.123419        -0.777569
 H         0.990440        -1.215367         0.475429
 H        -0.436394        -0.247240         0.725316
 H        -0.224575         0.430433        -2.453652
 H        -0.381775         1.997203        -1.656190
 H         0.981782         2.192843        -3.706580
 H         3.308653         1.895229        -3.599497
 H         4.034251         0.292020        -1.929307
 H         4.179213         1.848638        -0.930216
 H         2.820856        -0.248845        -0.032356
