19
Iteration:  4120
 C         0.160525        -0.585331        -0.323192
 C         1.140611         0.568904        -0.565778
 C         0.510946         1.456090        -1.636373
 C         1.308315         1.944414        -2.902364
 O         2.054260         3.180728        -2.753610
 C         2.814291         1.923357        -2.688152
 C         3.391653         1.268201        -1.406698
 C         2.541160         0.453792        -0.491040
 O         1.777183         1.167616         0.567810
 H         0.017126        -1.048998        -1.292552
 H         0.453054        -1.379263         0.455003
 H        -0.958943        -0.243034        -0.104623
 H        -0.355846         0.859460        -1.998893
 H        -0.016056         2.406155        -1.145725
 H         0.819111         1.737009        -3.827835
 H         3.436409         1.751058        -3.606288
 H         4.219221         0.682325        -1.874154
 H         3.813833         2.044301        -0.701326
 H         2.897568        -0.585351        -0.156746
