19
Iteration:  4681
 C         0.124646        -0.713510        -0.189487
 C         1.003318         0.507503        -0.661533
 C         0.538165         1.621182        -1.594604
 C         1.395472         1.862158        -2.874637
 O         2.108792         3.165266        -2.838118
 C         2.834547         1.980904        -2.696165
 C         3.444098         1.391510        -1.376783
 C         2.505096         0.504559        -0.520559
 O         1.686713         1.047508         0.533332
 H        -0.587385        -0.844336        -1.018174
 H         0.734068        -1.638418        -0.164005
 H        -0.568286        -0.435003         0.691307
 H        -0.374312         1.403708        -1.971002
 H         0.712425         2.568796        -1.015968
 H         0.908932         1.720761        -3.785762
 H         3.293484         1.767368        -3.652686
 H         4.252874         0.679332        -1.690473
 H         3.879044         2.144365        -0.671395
 H         2.909121        -0.479024        -0.275833
