19
Iteration:   226charge 0 multiplicity 1
 C         0.272712        -0.561398        -0.055468
 C         0.967250         0.563559        -0.675708
 C         0.317095         1.496348        -1.644593
 C         1.259401         2.303015        -2.519405
 O         2.304587         3.102790        -1.978476
 C         2.666452         1.856047        -2.783230
 C         3.352040         0.860284        -1.998103
 C         2.439836         0.368332        -0.831084
 O         2.004532         1.324536         0.187704
 H         0.644951        -0.760033         0.919946
 H        -0.897447        -0.375562         0.021866
 H         0.356354        -1.573525        -0.773616
 H        -0.479256         1.062506        -2.368366
 H        -0.202518         2.238862        -0.935107
 H         0.617206         2.821059        -3.303634
 H         3.011094         2.291595        -3.754974
 H         3.680447         0.035859        -2.683911
 H         4.229221         1.384865        -1.578929
 H         2.845931        -0.448797        -0.180364
