19
Iteration:  2007charge 0 multiplicity 1
 C         0.215203        -0.506178        -0.121717
 C         1.077641         0.607329        -0.700350
 C         0.460678         1.154639        -2.016373
 C         1.342236         2.025968        -2.842633
 O         2.033392         3.086678        -2.218292
 C         2.799147         1.981315        -2.636089
 C         3.427535         0.945266        -1.654037
 C         2.522467         0.609046        -0.386237
 O         1.775185         1.496106         0.340545
 H         0.143121        -1.377891        -0.809591
 H         0.773954        -0.952160         0.682291
 H        -0.799464        -0.164500         0.168522
 H         0.012799         0.258984        -2.604076
 H        -0.344918         1.767124        -1.578418
 H         0.908170         2.322289        -3.904917
 H         3.382007         2.242539        -3.615086
 H         3.638222        -0.061314        -2.062371
 H         4.409914         1.333239        -1.368161
 H         2.833848        -0.339294         0.046043
