19
Iteration:   100
 C         0.221570        -0.571770        -0.023932
 C         1.001331         0.523822        -0.625760
 C         0.301844         1.583154        -1.562456
 C         1.224817         2.317081        -2.609813
 O         2.372112         3.291652        -2.386598
 C         2.650355         1.941601        -2.880715
 C         3.413617         1.081048        -1.756388
 C         2.426523         0.212330        -0.844674
 O         1.976457         0.960307         0.374269
 H         0.908000        -1.252332         0.602405
 H        -0.403151        -0.038958         0.654503
 H        -0.362009        -1.163551        -0.636528
 H        -0.480232         1.089370        -2.095949
 H        -0.259617         2.314453        -0.966422
 H         0.535690         2.711597        -3.361285
 H         3.028348         1.935726        -3.897693
 H         4.187465         0.464255        -2.173235
 H         3.799373         1.831676        -1.055347
 H         2.639748        -0.827815        -0.619812
