19
Iteration:  2155charge 0 multiplicity 1
 C         0.277318        -0.713701        -0.109193
 C         1.016865         0.570344        -0.720189
 C         0.347733         1.409069        -1.839222
 C         1.295340         2.075653        -2.800094
 O         2.258795         3.088945        -2.301335
 C         2.768020         1.803474        -2.740907
 C         3.456584         1.120076        -1.533933
 C         2.525450         0.572920        -0.519386
 O         1.636726         1.413251         0.256791
 H         0.484157        -1.542871        -0.696713
 H         0.782829        -0.790778         0.880547
 H        -0.694379        -0.658729         0.273538
 H        -0.307947         0.787719        -2.352796
 H        -0.280991         2.204143        -1.339615
 H         0.856228         2.340694        -3.707253
 H         3.372721         1.748042        -3.651453
 H         4.100295         0.334407        -1.930173
 H         4.151426         1.898209        -1.148967
 H         2.991158        -0.256307         0.148535
