19
Iteration:  2173
 C         0.355510        -0.698157        -0.007808
 C         0.915635         0.521722        -0.630347
 C         0.377529         1.345075        -1.809085
 C         1.427865         2.100709        -2.756445
 O         2.271007         3.222307        -2.460713
 C         2.799510         1.873746        -2.730700
 C         3.379545         1.114776        -1.536521
 C         2.369325         0.470334        -0.609269
 O         1.689156         1.403727         0.334520
 H         0.485010        -1.544677        -0.805304
 H         0.834394        -1.017672         0.864597
 H        -0.803439        -0.605271        -0.005922
 H        -0.195812         0.685290        -2.584501
 H        -0.381207         2.047082        -1.402639
 H         0.955477         2.258573        -3.790274
 H         3.396177         1.836736        -3.696747
 H         4.081252         0.318211        -1.859664
 H         4.008479         1.817753        -0.971448
 H         2.792541        -0.390874        -0.154039
