19
Iteration:  4546charge 0 multiplicity 1
 C         0.169011        -0.523168        -0.341633
 C         1.092618         0.591915        -0.681587
 C         0.466556         1.605321        -1.579190
 C         1.306817         1.862719        -2.739414
 O         2.091966         3.040451        -2.691868
 C         2.799876         1.834171        -2.711012
 C         3.406169         1.431862        -1.340261
 C         2.563990         0.417967        -0.616724
 O         1.795840         1.081699         0.485427
 H         0.414596        -1.439833        -0.929720
 H        -0.144304        -0.680556         0.684309
 H        -0.913465        -0.322071        -0.910381
 H        -0.608483         1.197979        -1.842941
 H         0.319021         2.447924        -0.988037
 H         0.844292         1.573373        -3.711892
 H         3.331762         1.706890        -3.743718
 H         4.430869         1.158661        -1.439439
 H         3.406552         2.378388        -0.787190
 H         3.094300        -0.486894        -0.301487
