19
Iteration:  3899charge 0 multiplicity 1
 C         0.152972        -0.531532        -0.042643
 C         1.014557         0.499856        -0.696564
 C         0.405136         1.157732        -1.929506
 C         1.388222         1.981307        -2.776711
 O         2.079649         3.179744        -2.206483
 C         2.893264         2.036773        -2.633488
 C         3.426177         1.023845        -1.710037
 C         2.589830         0.565241        -0.494974
 O         1.719526         1.478387         0.238125
 H        -0.313107        -1.164319        -0.867076
 H         0.663352        -1.208034         0.683851
 H        -0.606544        -0.057272         0.578770
 H        -0.045767         0.256871        -2.583154
 H        -0.497899         1.697462        -1.559945
 H         1.102197         2.116565        -3.854894
 H         3.549021         2.213246        -3.482028
 H         3.606453         0.053799        -2.223122
 H         4.373447         1.220101        -1.238276
 H         2.974853        -0.292503         0.062411
