19
Iteration:  3793
 C         0.200352        -0.639029        -0.310466
 C         1.075558         0.599096        -0.669321
 C         0.405646         1.549076        -1.662804
 C         1.290775         1.933141        -2.846913
 O         2.117369         3.143741        -2.655381
 C         2.760259         1.850376        -2.627052
 C         3.469836         1.258712        -1.461771
 C         2.506041         0.531700        -0.465084
 O         1.792004         1.198806         0.479968
 H         0.089757        -1.383568        -1.039112
 H         0.761633        -1.109488         0.581055
 H        -0.856442        -0.382071        -0.041859
 H        -0.386859         1.029724        -2.127334
 H        -0.094030         2.406510        -1.222531
 H         0.772079         1.862215        -3.789745
 H         3.454178         1.510415        -3.489581
 H         4.098618         0.475762        -1.914397
 H         4.198668         1.812120        -0.781512
 H         2.945902        -0.545175        -0.237737
