19
Iteration:  4819
 C         0.275224        -0.640413        -0.161703
 C         0.977305         0.582513        -0.618678
 C         0.380287         1.371862        -1.799673
 C         1.339190         1.994717        -2.772304
 O         2.162534         3.119380        -2.366950
 C         2.799540         1.885168        -2.692144
 C         3.479720         1.126126        -1.550582
 C         2.459927         0.539721        -0.548389
 O         1.748105         1.369610         0.312458
 H        -0.064776        -1.289080        -1.016571
 H         0.840236        -1.371357         0.361975
 H        -0.688090        -0.319723         0.296314
 H        -0.270232         0.791136        -2.452888
 H        -0.241694         2.123467        -1.417899
 H         0.927902         2.229986        -3.854880
 H         3.495715         2.039577        -3.577083
 H         4.083157         0.332398        -2.010359
 H         4.092353         1.885921        -1.032087
 H         2.756357        -0.408627        -0.086333
