19
Iteration:  4629charge 0 multiplicity 1
 C         0.280295        -0.645661        -0.460141
 C         1.068141         0.648051        -0.706757
 C         0.332907         1.663136        -1.567974
 C         1.250020         1.969080        -2.861868
 O         2.230788         3.018643        -2.699392
 C         2.698269         1.659777        -2.628993
 C         3.393329         1.435224        -1.349585
 C         2.578454         0.517926        -0.461915
 O         1.766365         1.105597         0.508594
 H        -0.447068        -1.050421        -1.232692
 H         0.949079        -1.568406        -0.268870
 H        -0.341909        -0.416355         0.384771
 H        -0.660933         1.270906        -1.795912
 H         0.347578         2.660071        -0.981375
 H         0.751995         1.964118        -3.897580
 H         3.203249         1.396958        -3.502047
 H         4.374286         0.894094        -1.625826
 H         3.605277         2.432142        -0.896852
 H         3.084229        -0.401118        -0.075784
