19
Iteration:  2537
 C         0.140271        -0.541562        -0.077299
 C         1.038959         0.599766        -0.685996
 C         0.395783         1.266404        -1.856900
 C         1.329196         2.009908        -2.771054
 O         2.109184         3.146348        -2.249946
 C         2.770912         1.855458        -2.819483
 C         3.525375         1.119268        -1.547620
 C         2.502818         0.454766        -0.605240
 O         1.834270         1.404002         0.313461
 H         0.337560        -1.425928        -0.583605
 H         0.316825        -0.664796         1.058949
 H        -0.897435        -0.434307        -0.351068
 H        -0.193328         0.480917        -2.473923
 H        -0.294026         1.953375        -1.447925
 H         0.881994         2.053647        -3.744439
 H         3.237478         2.104060        -3.799621
 H         4.430044         0.559188        -1.581123
 H         3.882142         1.973899        -0.975462
 H         2.802683        -0.420131        -0.141822
