19
Iteration:   706charge 0 multiplicity 1
 C         0.039590        -0.504645        -0.142793
 C         1.101020         0.466093        -0.709256
 C         0.391783         1.568913        -1.401645
 C         1.201323         2.227574        -2.516961
 O         2.279353         3.212427        -2.288005
 C         2.629064         1.954620        -2.842589
 C         3.411799         1.059148        -1.873112
 C         2.606281         0.309148        -0.767859
 O         1.992419         1.046442         0.296424
 H        -0.818983         0.008064         0.421068
 H        -0.435383        -1.057698        -1.037131
 H         0.448555        -1.213521         0.446271
 H        -0.605031         1.249308        -2.005363
 H        -0.101142         2.207044        -0.649320
 H         0.487674         2.535459        -3.320015
 H         2.921629         2.073205        -3.860154
 H         3.759509         0.222832        -2.507044
 H         4.350721         1.567124        -1.518072
 H         3.127282        -0.560660        -0.439072
