19
Iteration:  3184charge 0 multiplicity 1
 C         0.080779        -0.695410        -0.376332
 C         1.035077         0.485841        -0.582247
 C         0.532586         1.675839        -1.444951
 C         1.347134         1.879122        -2.780917
 O         2.106726         3.087489        -2.935319
 C         2.846592         1.842501        -2.735303
 C         3.445070         1.533435        -1.346075
 C         2.528727         0.502093        -0.547185
 O         1.732665         1.016431         0.557189
 H         0.020918        -1.318487        -1.308268
 H         0.324481        -1.283445         0.479213
 H        -0.954003        -0.186313        -0.138302
 H        -0.419605         1.489861        -1.878199
 H         0.382833         2.661886        -0.902050
 H         0.799184         1.645143        -3.723557
 H         3.357376         1.686242        -3.678731
 H         4.486941         1.076879        -1.514172
 H         3.714877         2.337234        -0.705275
 H         3.100412        -0.317164        -0.221096
