19
Iteration:  4215charge 0 multiplicity 1
 C         0.207633        -0.600406        -0.317515
 C         1.094516         0.548607        -0.627545
 C         0.399696         1.431431        -1.815439
 C         1.316842         1.923371        -2.843597
 O         2.091632         3.126873        -2.495539
 C         2.821295         1.905668        -2.704753
 C         3.451173         1.142215        -1.479444
 C         2.560018         0.627954        -0.398129
 O         1.708804         1.294502         0.490098
 H        -0.061621        -1.081980        -1.292142
 H         0.820321        -1.332645         0.344242
 H        -0.611173        -0.293873         0.190599
 H        -0.358993         0.833330        -2.257238
 H        -0.220200         2.193703        -1.247454
 H         1.031499         1.974857        -3.938398
 H         3.339293         1.845257        -3.632965
 H         3.686911         0.146484        -1.951695
 H         4.446552         1.663236        -1.314505
 H         2.939649        -0.281154         0.042915
