19
Iteration:   600
 C         0.137791        -0.503918        -0.073482
 C         1.075171         0.506149        -0.670705
 C         0.373939         1.358512        -1.680653
 C         1.244888         2.320314        -2.518272
 O         2.331524         3.153392        -1.999545
 C         2.603887         1.959981        -2.706973
 C         3.299969         0.867425        -2.010999
 C         2.572993         0.379192        -0.787369
 O         1.989401         1.313647         0.187047
 H        -0.651895         0.071141         0.382208
 H        -0.420116        -1.087965        -0.835052
 H         0.677740        -1.313803         0.751674
 H        -0.189751         0.762161        -2.353488
 H        -0.310867         1.980752        -1.051122
 H         0.657133         2.845988        -3.305180
 H         2.906958         2.198304        -3.806196
 H         3.198830         0.011212        -2.722213
 H         4.371312         1.074185        -1.848449
 H         2.975852        -0.513028        -0.209097
