19
Iteration:  1970charge 0 multiplicity 1
 C         0.249119        -0.690855        -0.042056
 C         1.000359         0.550756        -0.692092
 C         0.387015         1.262334        -1.829170
 C         1.330999         2.039665        -2.733152
 O         2.212561         3.200503        -2.422680
 C         2.845076         1.958945        -2.766008
 C         3.497416         1.042172        -1.585646
 C         2.468883         0.570012        -0.507683
 O         1.658562         1.439309         0.334172
 H         0.451638        -1.558393        -0.638195
 H         0.538073        -0.721894         1.108552
 H        -0.829959        -0.684415         0.036376
 H        -0.209425         0.583491        -2.577814
 H        -0.409704         1.942748        -1.529558
 H         0.855058         2.162308        -3.654377
 H         3.329575         1.898153        -3.665539
 H         3.964677         0.220406        -2.130932
 H         4.264005         1.619162        -1.038534
 H         2.797849        -0.332574        -0.012871
