19
Iteration:  4411charge 0 multiplicity 1
 C         0.209764        -0.596391        -0.019238
 C         1.009144         0.477746        -0.706012
 C         0.397491         1.320897        -1.908223
 C         1.388070         2.094726        -2.849118
 O         2.124817         3.194182        -2.383256
 C         2.837301         1.971857        -2.661095
 C         3.446424         1.113292        -1.522353
 C         2.470733         0.490631        -0.483762
 O         1.722478         1.310522         0.292403
 H        -0.301595        -1.167354        -0.861454
 H         1.020297        -1.279201         0.511974
 H        -0.399419        -0.156714         0.714117
 H        -0.214381         0.688766        -2.665030
 H        -0.357615         1.818927        -1.444611
 H         1.102929         2.196230        -3.925916
 H         3.383770         1.846239        -3.568598
 H         3.910213         0.244483        -1.940420
 H         4.175547         1.697620        -1.051045
 H         3.047859        -0.280402         0.093729
