19
Iteration:  1814
 C         0.234977        -0.599559        -0.054922
 C         1.038305         0.629376        -0.711743
 C         0.379020         1.209699        -1.931641
 C         1.342047         1.963390        -2.846614
 O         2.106648         3.062978        -2.162893
 C         2.794290         1.907254        -2.652236
 C         3.440123         1.052017        -1.589125
 C         2.541367         0.572152        -0.535242
 O         1.730872         1.557078         0.213194
 H        -0.093238        -1.324256        -0.898725
 H         0.967344        -1.176842         0.449944
 H        -0.587230        -0.189553         0.671338
 H         0.009180         0.314168        -2.595029
 H        -0.486720         1.859704        -1.555887
 H         0.994402         2.185713        -3.787414
 H         3.381342         2.156167        -3.460584
 H         4.045698         0.221134        -2.021633
 H         4.255977         1.697939        -1.187270
 H         2.902535        -0.317076         0.053684
