19
Iteration:   750charge 0 multiplicity 1
 C         0.399166        -0.607710        -0.271391
 C         1.026229         0.675286        -0.600023
 C         0.308726         1.696568        -1.484932
 C         1.192295         2.338558        -2.581487
 O         2.294477         3.117384        -2.166792
 C         2.659558         1.900251        -2.778284
 C         3.204614         0.843938        -1.903922
 C         2.455644         0.348684        -0.718642
 O         2.036587         1.133175         0.285393
 H        -0.750924        -0.789589        -0.057952
 H         0.533348        -1.306953        -1.201913
 H         0.945341        -0.916967         0.562290
 H        -0.706927         1.204054        -1.895285
 H        -0.154765         2.544264        -0.951932
 H         0.541033         2.735178        -3.396403
 H         3.049072         1.953863        -3.754665
 H         3.404744        -0.073077        -2.491314
 H         4.258676         1.108153        -1.568055
 H         2.678274        -0.662904        -0.456037
