19
Iteration:  4635
 C         0.234506        -0.676686        -0.477263
 C         1.064570         0.659060        -0.688817
 C         0.348998         1.650730        -1.587429
 C         1.193805         1.938403        -2.878137
 O         2.239846         3.041998        -2.680943
 C         2.662760         1.669480        -2.640556
 C         3.416857         1.449720        -1.315441
 C         2.595402         0.519957        -0.478047
 O         1.805948         1.106738         0.491703
 H        -0.480094        -0.834985        -1.246901
 H         0.991861        -1.400282        -0.325425
 H        -0.328475        -0.375026         0.540664
 H        -0.621986         1.208530        -1.814491
 H         0.344734         2.585180        -1.005860
 H         0.864125         1.833056        -3.862803
 H         3.353473         1.331834        -3.515139
 H         4.309255         0.855631        -1.416167
 H         3.708248         2.430562        -0.904794
 H         2.959672        -0.402015        -0.026845
