19
Iteration:  4656charge 0 multiplicity 1
 C         0.181706        -0.662916        -0.414528
 C         1.034181         0.626700        -0.617882
 C         0.423790         1.600463        -1.543312
 C         1.372960         1.893011        -2.775726
 O         2.096592         3.070249        -2.764686
 C         2.839736         1.802367        -2.658506
 C         3.438852         1.401966        -1.410473
 C         2.520024         0.469210        -0.551320
 O         1.759791         1.149171         0.539564
 H        -0.593687        -0.671900        -1.149576
 H         0.706262        -1.568255        -0.540954
 H        -0.422797        -0.480125         0.519321
 H        -0.466218         1.089886        -2.017430
 H         0.343519         2.510315        -1.040159
 H         0.833695         1.812544        -3.698554
 H         3.350873         1.606167        -3.664399
 H         4.368397         0.946166        -1.578352
 H         3.570472         2.294248        -0.805175
 H         2.909382        -0.476893        -0.152373
