19
Iteration:  3664charge 0 multiplicity 1
 C         0.163577        -0.458586        -0.153169
 C         1.043744         0.583383        -0.735581
 C         0.373452         1.297647        -1.825028
 C         1.302616         1.964451        -2.762666
 O         2.067879         3.036090        -2.232804
 C         2.858775         1.867124        -2.612108
 C         3.506931         1.195529        -1.514873
 C         2.554853         0.451244        -0.644992
 O         1.790650         1.386291         0.194477
 H         0.108050        -1.368166        -0.755509
 H         0.489595        -0.747093         0.948449
 H        -0.907471        -0.069083        -0.018552
 H        -0.188195         0.516373        -2.441530
 H        -0.398499         2.141371        -1.312860
 H         0.885498         2.096360        -3.761323
 H         3.510315         1.968331        -3.510947
 H         4.226665         0.455296        -1.886587
 H         4.039166         1.946675        -0.940052
 H         2.887693        -0.358784        -0.116992
