19
Iteration:   860
 C         0.193037        -0.315351         0.184822
 C         1.024830         0.567649        -0.718016
 C         0.363535         1.376985        -1.831926
 C         1.300421         2.223150        -2.698978
 O         1.997849         3.207781        -1.845153
 C         2.736668         2.183081        -2.629760
 C         3.364503         0.769435        -2.020043
 C         2.495517         0.159122        -0.906289
 O         2.117494         1.138140         0.134942
 H        -0.149773         0.278473         1.059258
 H        -0.809116        -0.571076        -0.248948
 H         0.858886        -1.230136         0.382873
 H        -0.198494         0.742670        -2.366334
 H        -0.196375         2.214781        -1.444296
 H         0.737715         2.499215        -3.644830
 H         3.405747         2.651741        -3.253150
 H         3.519171         0.140326        -2.924940
 H         4.381917         1.061839        -1.625712
 H         2.904584        -0.746901        -0.508056
