19
Iteration:   555charge 0 multiplicity 1
 C         0.332129        -0.599696         0.015563
 C         1.040235         0.615410        -0.697328
 C         0.350500         1.559838        -1.761589
 C         1.260958         2.351764        -2.641282
 O         2.301351         3.076460        -1.877808
 C         2.630516         1.978448        -2.731325
 C         3.180219         0.759124        -2.012113
 C         2.511547         0.332044        -0.807620
 O         1.963514         1.315812         0.203949
 H        -0.728860        -0.557278         0.095123
 H         0.570850        -1.596404        -0.485224
 H         0.892643        -0.674863         1.109865
 H        -0.363189         1.067051        -2.399217
 H        -0.349596         2.233920        -1.217528
 H         0.750056         2.887930        -3.453095
 H         3.205621         2.319303        -3.680518
 H         3.152061        -0.036153        -2.769514
 H         4.254529         0.931113        -1.773039
 H         2.751137        -0.661023        -0.393271
