19
Iteration:  4163
 C         0.139420        -0.663255        -0.157621
 C         0.975693         0.497558        -0.636009
 C         0.381954         1.509362        -1.671732
 C         1.308269         1.899946        -2.814885
 O         2.219588         3.089323        -2.595492
 C         2.833461         1.835475        -2.684835
 C         3.477403         1.472102        -1.369222
 C         2.486266         0.474517        -0.696366
 O         1.779202         1.170048         0.359966
 H         0.062362        -1.447357        -0.893958
 H         0.679842        -0.895206         0.806406
 H        -0.940315        -0.345566         0.055822
 H        -0.524636         1.133789        -2.032702
 H         0.083138         2.438395        -0.981839
 H         0.955531         1.873581        -3.835894
 H         3.504796         1.852398        -3.543598
 H         4.501668         0.998743        -1.454678
 H         3.654673         2.510999        -1.074172
 H         2.850225        -0.439462        -0.305747
