19
Iteration:  3989charge 0 multiplicity 1
 C         0.137775        -0.448334         0.000735
 C         1.070525         0.459644        -0.766270
 C         0.441845         1.221963        -1.960871
 C         1.396994         1.988782        -2.937411
 O         1.974160         3.091330        -2.142734
 C         2.819384         2.068005        -2.592380
 C         3.445284         1.044990        -1.571723
 C         2.580993         0.476759        -0.528208
 O         1.794856         1.403839         0.185222
 H         0.285324        -1.417111        -0.295796
 H         0.541325        -0.474839         1.067382
 H        -0.871515        -0.047401         0.174908
 H        -0.389483         0.711022        -2.590400
 H        -0.107950         1.977037        -1.495105
 H         0.991039         2.105384        -3.911956
 H         3.544125         2.377658        -3.393353
 H         3.806272         0.300525        -2.266492
 H         4.360326         1.440759        -1.122798
 H         2.855463        -0.486835         0.038382
