19
Iteration:  2724
 C         0.124236        -0.480164        -0.120499
 C         1.077204         0.521026        -0.671193
 C         0.408410         1.368459        -1.866422
 C         1.333881         1.957120        -2.798479
 O         2.077725         3.145717        -2.498646
 C         2.799721         1.900321        -2.718701
 C         3.425312         1.340169        -1.479105
 C         2.603528         0.446680        -0.552169
 O         1.811657         1.142801         0.440049
 H        -0.120148        -1.293462        -0.745781
 H         0.563949        -0.728492         0.888557
 H        -0.837248         0.014754         0.074744
 H        -0.159322         0.544334        -2.470451
 H        -0.246506         2.119861        -1.461714
 H         0.785021         2.124798        -3.791268
 H         3.425410         1.909659        -3.716019
 H         4.251499         0.621735        -1.646331
 H         3.875006         2.106153        -0.842489
 H         3.002647        -0.534225        -0.262049
