19
Iteration:    76charge 0 multiplicity 1
 C         0.099729        -0.696632        -0.015215
 C         1.024993         0.413213        -0.628820
 C         0.492471         1.596613        -1.475922
 C         1.271598         2.351633        -2.563289
 O         2.358621         3.256371        -2.380443
 C         2.596983         1.910705        -2.805060
 C         3.339728         1.048849        -1.831503
 C         2.500103         0.407766        -0.791192
 O         1.923683         1.091328         0.261740
 H         0.622224        -1.212968         0.684575
 H        -0.853734        -0.352757         0.335076
 H        -0.182415        -1.376059        -0.886021
 H        -0.401807         1.219203        -2.029372
 H         0.020936         2.262920        -0.829430
 H         0.554187         2.661603        -3.263375
 H         3.010477         1.834624        -3.850243
 H         3.629418         0.147868        -2.477827
 H         4.205963         1.541179        -1.421279
 H         3.020807        -0.524113        -0.419622
