19
Iteration:  1219charge 0 multiplicity 1
 C         0.077177        -0.239093        -0.042343
 C         1.149585         0.603098        -0.644576
 C         0.382663         1.306650        -1.843420
 C         1.219773         2.204906        -2.660750
 O         2.110673         3.087632        -1.899082
 C         2.586690         1.995749        -2.713482
 C         3.305387         0.922165        -1.918219
 C         2.672704         0.246912        -0.770686
 O         2.101223         1.204693         0.219013
 H        -0.109057        -1.111049        -0.648716
 H         0.218178        -0.445614         0.988651
 H        -0.873446         0.301555         0.001409
 H         0.203678         0.478379        -2.480866
 H        -0.492984         1.834923        -1.534452
 H         0.663834         2.779208        -3.413765
 H         3.203822         2.270401        -3.681280
 H         3.727193         0.218745        -2.749759
 H         4.292841         1.362542        -1.535248
 H         3.094853        -0.706827        -0.316885
