19
Iteration:  4154
 C         0.128304        -0.620293        -0.179796
 C         1.027690         0.545700        -0.693484
 C         0.330923         1.519684        -1.650803
 C         1.310899         1.916698        -2.863275
 O         2.197993         3.036848        -2.566314
 C         2.786329         1.785715        -2.690015
 C         3.486786         1.504350        -1.393391
 C         2.583867         0.543314        -0.626743
 O         1.785435         1.121471         0.397145
 H         0.083333        -1.416550        -0.896316
 H         0.380888        -1.058800         0.789175
 H        -0.963114        -0.119169        -0.056504
 H        -0.607088         1.028990        -2.097307
 H         0.010759         2.421726        -1.070486
 H         0.996394         1.934356        -3.888679
 H         3.427170         1.609632        -3.628974
 H         4.482367         1.114080        -1.526295
 H         3.539500         2.233811        -0.589823
 H         3.097325        -0.483050        -0.552052
