19
Iteration:  1240
 C         0.085759        -0.354740         0.075236
 C         1.073210         0.477491        -0.729708
 C         0.376235         1.286251        -1.783700
 C         1.241828         2.300235        -2.632853
 O         2.161449         3.102809        -1.986379
 C         2.688775         2.011686        -2.758989
 C         3.414320         0.931333        -1.919986
 C         2.562380         0.352182        -0.800314
 O         2.012273         1.248171         0.239103
 H        -0.563203        -0.972183        -0.576504
 H         0.568761        -1.004239         0.811284
 H        -0.573000         0.244273         0.574043
 H        -0.033639         0.570738        -2.556614
 H        -0.374596         1.833118        -1.256672
 H         0.733559         2.708344        -3.481675
 H         3.212650         2.365336        -3.735071
 H         3.677458         0.066793        -2.612225
 H         4.400834         1.356115        -1.530416
 H         2.907778        -0.688705        -0.454579
