19
Iteration:  1307
 C         0.251271        -0.526303        -0.131954
 C         1.061601         0.570419        -0.688350
 C         0.345860         1.476782        -1.646147
 C         1.242935         2.173331        -2.677576
 O         2.246821         3.155280        -2.163074
 C         2.675442         1.850663        -2.764099
 C         3.374038         0.951217        -1.838225
 C         2.533686         0.441051        -0.663926
 O         1.877825         1.270064         0.312716
 H        -0.817565        -0.351861        -0.139768
 H         0.448792        -1.314057        -0.876227
 H         0.497043        -0.776195         0.887749
 H        -0.488227         0.829261        -2.165270
 H        -0.136895         2.225370        -0.991132
 H         0.738579         2.488280        -3.616785
 H         3.188623         1.956074        -3.838972
 H         3.757249         0.065265        -2.444849
 H         4.205802         1.582498        -1.390768
 H         2.837839        -0.603733        -0.274841
