19
Iteration:   759
 C         0.387854        -0.650847        -0.248395
 C         1.005558         0.681774        -0.617232
 C         0.343053         1.701495        -1.499896
 C         1.225900         2.317760        -2.590288
 O         2.246115         3.207627        -2.135027
 C         2.627249         1.846866        -2.749393
 C         3.258580         0.775893        -1.926515
 C         2.444821         0.363424        -0.795032
 O         2.026240         1.167340         0.332566
 H        -0.749568        -0.444421         0.089788
 H         0.640055        -1.448725        -1.072654
 H         0.827312        -1.104387         0.590428
 H        -0.358244         1.198116        -2.094354
 H        -0.200819         2.485141        -0.925389
 H         0.680324         2.750434        -3.428916
 H         3.043872         1.938468        -3.676058
 H         3.192619        -0.087885        -2.649942
 H         4.312297         1.022093        -1.730977
 H         2.784480        -0.590442        -0.516774
