19
Iteration:  3359
 C         0.150274        -0.552015        -0.350405
 C         1.126238         0.578361        -0.562455
 C         0.445165         1.640780        -1.625053
 C         1.311958         1.882952        -2.882662
 O         2.243019         3.124174        -2.864434
 C         2.717163         1.804575        -2.743457
 C         3.242329         1.539968        -1.268476
 C         2.603004         0.374587        -0.542591
 O         1.811307         0.959693         0.584903
 H        -0.017644        -1.137545        -1.238035
 H         0.572937        -1.167012         0.426235
 H        -0.823481        -0.123205        -0.000591
 H        -0.516170         1.307504        -1.761615
 H         0.498232         2.596466        -1.022540
 H         0.762543         1.488883        -3.762246
 H         3.326087         1.477613        -3.585714
 H         4.380226         1.442271        -1.254135
 H         2.851401         2.328749        -0.634607
 H         2.987107        -0.649167        -0.390818
