19
Iteration:  3343
 C         0.159745        -0.594178        -0.351820
 C         1.018754         0.597190        -0.616426
 C         0.444170         1.656789        -1.548523
 C         1.323796         1.963664        -2.797867
 O         2.203080         3.042776        -2.984512
 C         2.791176         1.781650        -2.644744
 C         3.356058         1.571105        -1.304392
 C         2.512218         0.506396        -0.585445
 O         1.832209         0.894538         0.660315
 H        -0.117574        -1.048493        -1.333963
 H         0.589782        -1.473896         0.215783
 H        -0.732462        -0.224377         0.114670
 H        -0.519380         1.081882        -2.015493
 H        -0.004116         2.550253        -1.132968
 H         0.851811         1.836985        -3.780447
 H         3.388343         1.329251        -3.461495
 H         4.357450         1.203146        -1.325203
 H         3.324540         2.570186        -0.813391
 H         3.068404        -0.477075        -0.482568
