19
Iteration:  4682
 C         0.121829        -0.718101        -0.181573
 C         1.003188         0.514298        -0.668793
 C         0.543115         1.617031        -1.602528
 C         1.394906         1.864210        -2.877430
 O         2.108601         3.164346        -2.839383
 C         2.828517         1.979645        -2.684128
 C         3.444769         1.398184        -1.380522
 C         2.503560         0.501723        -0.521409
 O         1.687759         1.043529         0.533331
 H        -0.599560        -0.828011        -1.045017
 H         0.749604        -1.667583        -0.113664
 H        -0.547719        -0.428795         0.684486
 H        -0.390875         1.426966        -1.946835
 H         0.721004         2.580156        -1.008181
 H         0.905739         1.765881        -3.833149
 H         3.291339         1.740118        -3.603284
 H         4.277584         0.676919        -1.708892
 H         3.902774         2.150858        -0.679802
 H         2.901556        -0.483180        -0.248390
