19
Iteration:   405charge 0 multiplicity 1
 C         0.242223        -0.599612        -0.183066
 C         1.072708         0.584754        -0.703176
 C         0.297090         1.598888        -1.535773
 C         1.189106         2.381132        -2.566408
 O         2.336959         3.071604        -2.203204
 C         2.583529         1.887961        -2.822592
 C         3.346707         0.931149        -1.887428
 C         2.521958         0.400294        -0.723392
 O         1.973844         1.155158         0.352552
 H         0.521820        -0.745124         0.896679
 H        -0.791700        -0.454227        -0.188546
 H         0.606045        -1.615361        -0.612703
 H        -0.514791         1.090081        -2.210945
 H        -0.210637         2.363548        -0.900483
 H         0.585636         2.695317        -3.358517
 H         2.888217         1.949178        -3.802063
 H         3.746790         0.048276        -2.449918
 H         4.209667         1.498405        -1.636544
 H         2.993995        -0.525136        -0.445407
