19
Iteration:   744
 C         0.344993        -0.623444        -0.276510
 C         1.037303         0.669655        -0.620902
 C         0.275838         1.704306        -1.489378
 C         1.165318         2.310979        -2.567345
 O         2.340492         3.074793        -2.180163
 C         2.601087         1.955811        -2.818494
 C         3.233226         0.877438        -1.889776
 C         2.473621         0.314964        -0.730301
 O         2.035046         1.155395         0.315652
 H        -0.681677        -0.769151        -0.124489
 H         0.433775        -1.209561        -1.140243
 H         1.027272        -0.993889         0.615551
 H        -0.606541         1.175829        -1.826074
 H         0.057111         2.527390        -0.764462
 H         0.664345         2.722140        -3.449166
 H         3.149609         2.040096        -3.880896
 H         3.550624        -0.020722        -2.438607
 H         4.169504         1.236557        -1.472562
 H         2.696443        -0.757745        -0.354645
