19
Iteration:  4071
 C         0.382527        -0.652483        -0.261705
 C         1.038698         0.549956        -0.684824
 C         0.417708         1.546824        -1.675546
 C         1.277704         1.962192        -2.797456
 O         2.182826         3.071589        -2.505627
 C         2.767822         1.764094        -2.719062
 C         3.450416         1.279339        -1.463550
 C         2.533336         0.489455        -0.546594
 O         1.604509         1.285236         0.377042
 H        -0.235154        -1.209882        -1.032147
 H         1.025884        -1.206326         0.373331
 H        -0.414935        -0.340589         0.347570
 H        -0.589633         1.312608        -2.130306
 H         0.230319         2.478568        -1.046747
 H         0.688194         2.093191        -3.771685
 H         3.307717         1.790515        -3.662090
 H         4.245313         0.594560        -1.888916
 H         3.893908         2.021119        -0.774695
 H         2.865515        -0.371695         0.034680
