19
Iteration:  1148
 C         0.274060        -0.554959         0.076492
 C         0.991317         0.476726        -0.763308
 C         0.304214         1.479237        -1.695862
 C         1.318819         2.275663        -2.536804
 O         2.280739         3.210133        -2.062289
 C         2.722505         1.964822        -2.817792
 C         3.316506         0.888352        -1.909792
 C         2.498999         0.331102        -0.763036
 O         1.870425         1.268343         0.147553
 H         0.844067        -1.479284         0.131844
 H         0.098380        -0.049188         1.028523
 H        -0.709795        -0.897667        -0.347643
 H        -0.247418         0.794646        -2.480590
 H        -0.262861         2.139986        -0.994861
 H         0.756119         2.701518        -3.393313
 H         3.189347         2.117549        -3.725270
 H         3.848730         0.032149        -2.291088
 H         4.162502         1.416469        -1.438670
 H         2.827298        -0.610476        -0.319982
