19
Iteration:  4128
 C         0.164656        -0.504735        -0.353675
 C         1.087872         0.572413        -0.621929
 C         0.500661         1.448921        -1.631862
 C         1.325866         1.939687        -2.862881
 O         2.059501         3.159513        -2.712166
 C         2.735759         1.823663        -2.710651
 C         3.424228         1.347311        -1.425661
 C         2.555916         0.422931        -0.456533
 O         1.786522         1.135382         0.541913
 H         0.109666        -1.225965        -1.214632
 H         0.498976        -1.121921         0.550052
 H        -0.755275        -0.053048        -0.089568
 H        -0.224696         0.906177        -2.111336
 H        -0.060846         2.293591        -1.007534
 H         0.918183         1.756449        -3.881938
 H         3.381374         1.874316        -3.534916
 H         4.391331         0.787128        -1.669273
 H         3.666542         2.076637        -0.655425
 H         3.033216        -0.468718        -0.294375
