19
Iteration:   139
 C         0.020222        -0.413497        -0.142445
 C         1.102481         0.570494        -0.665682
 C         0.426284         1.603913        -1.493697
 C         1.257327         2.035084        -2.675370
 O         2.000768         3.231030        -2.208658
 C         2.696957         1.999328        -2.747602
 C         3.495222         1.000951        -1.814251
 C         2.538589         0.240881        -0.824735
 O         2.104076         1.024653         0.306362
 H         0.354330        -1.352506         0.255937
 H        -0.584759         0.093375         0.682790
 H        -0.842987        -0.466126        -0.963397
 H        -0.577246         1.217184        -1.899221
 H         0.270812         2.566602        -0.996644
 H         0.732266         2.297433        -3.591349
 H         3.238631         2.203000        -3.692785
 H         4.109713         0.281072        -2.471592
 H         4.297620         1.547779        -1.314100
 H         2.924593        -0.785379        -0.590131
