19
Iteration:  2135
 C         0.298524        -0.540674        -0.225494
 C         1.127498         0.544904        -0.732736
 C         0.375487         1.319522        -1.790527
 C         1.284541         1.999980        -2.754612
 O         2.102285         3.004818        -2.219026
 C         2.830783         1.832137        -2.696567
 C         3.495048         1.076623        -1.613151
 C         2.519739         0.636816        -0.503553
 O         1.648985         1.461691         0.255565
 H         0.190576        -1.308625        -0.971999
 H         0.407341        -0.989582         0.870196
 H        -0.643613        -0.038222        -0.111047
 H        -0.369775         0.746535        -2.302795
 H        -0.153850         2.098878        -1.244238
 H         0.923794         2.130070        -3.745082
 H         3.332372         1.984682        -3.611402
 H         3.988346         0.170718        -2.014367
 H         4.264332         1.708590        -1.119327
 H         2.894497        -0.247059         0.078735
