19
Iteration:  4914charge 0 multiplicity 1
 C         0.212175        -0.336037         0.089551
 C         1.061415         0.579058        -0.810121
 C         0.497670         1.136521        -2.132578
 C         1.343767         2.081619        -2.912692
 O         1.914886         3.039466        -1.918365
 C         2.776349         2.036972        -2.544480
 C         3.444677         0.950047        -1.671378
 C         2.505536         0.355225        -0.475256
 O         1.862770         1.488497         0.091610
 H         0.082897        -1.305469        -0.512780
 H         0.763048        -0.611562         0.988744
 H        -0.683325         0.214265         0.139862
 H         0.326522         0.189258        -2.812481
 H        -0.568133         1.552309        -2.060106
 H         1.090445         2.382233        -3.870167
 H         3.469848         2.446801        -3.230523
 H         3.858158         0.167817        -2.331542
 H         4.265071         1.484671        -1.201958
 H         2.883477        -0.454511         0.221633
