19
Iteration:  2066
 C         0.146591        -0.398549         0.228420
 C         1.059667         0.465933        -0.784085
 C         0.397776         1.111671        -2.069058
 C         1.375010         2.076453        -2.829982
 O         2.057423         3.121448        -2.181102
 C         2.871693         2.037682        -2.595092
 C         3.491481         1.139653        -1.569199
 C         2.572420         0.424296        -0.654635
 O         1.687826         1.326056         0.139336
 H        -0.516348        -1.206045        -0.107664
 H         0.723241        -0.726804         1.120806
 H        -0.529220         0.411344         0.567901
 H         0.254943         0.369491        -2.755955
 H        -0.618580         1.574500        -1.932777
 H         1.119748         2.364300        -3.841637
 H         3.490315         2.274761        -3.516104
 H         4.121244         0.344215        -2.006401
 H         4.129019         1.784909        -0.917548
 H         2.957619        -0.487990        -0.051492
