19
Iteration:    41
 C         0.252694        -0.475030        -0.286446
 C         1.076710         0.712646        -0.607011
 C         0.399818         1.648659        -1.529411
 C         1.140834         2.166974        -2.629557
 O         2.138576         3.090615        -2.102581
 C         2.621988         1.839540        -2.716733
 C         3.348786         0.882560        -1.898264
 C         2.543257         0.388097        -0.767273
 O         2.052563         1.167035         0.328246
 H         0.593717        -1.066529         0.510034
 H        -0.789164        -0.179999        -0.038120
 H         0.354236        -1.149568        -1.217705
 H        -0.394812         1.056293        -2.073929
 H        -0.024357         2.484943        -0.989869
 H         0.682013         2.500510        -3.574088
 H         3.181477         2.006082        -3.708506
 H         3.475146        -0.077102        -2.535892
 H         4.396617         1.138483        -1.690333
 H         2.901385        -0.646818        -0.448231
