19
Iteration:  2746charge 0 multiplicity 1
 C         0.074063        -0.584164        -0.204691
 C         1.051865         0.472730        -0.587574
 C         0.431784         1.421043        -1.656318
 C         1.311541         1.920903        -2.799593
 O         2.101230         3.088399        -2.497070
 C         2.791438         1.862007        -2.693611
 C         3.553509         1.362913        -1.504577
 C         2.571692         0.493839        -0.662286
 O         1.793435         1.255886         0.352175
 H        -0.001931        -1.370503        -0.908918
 H         0.130783        -0.897406         0.883707
 H        -0.911506        -0.101330        -0.329908
 H        -0.458182         0.799366        -2.088982
 H         0.031563         2.302007        -1.171889
 H         0.807399         1.871391        -3.860251
 H         3.434484         1.903501        -3.686088
 H         4.578284         0.898279        -1.572997
 H         3.654328         2.230962        -0.825537
 H         3.029169        -0.393019        -0.208918
