19
Iteration:   189charge 0 multiplicity 1
 C         0.257497        -0.557756        -0.076082
 C         1.018912         0.577675        -0.643599
 C         0.347914         1.533030        -1.635680
 C         1.232032         2.384664        -2.590012
 O         2.300710         3.216980        -2.207441
 C         2.612296         1.924215        -2.797018
 C         3.356326         0.888936        -1.885365
 C         2.441091         0.297066        -0.787805
 O         1.969693         1.116063         0.342152
 H         0.946368        -1.000968         0.761845
 H        -0.667172        -0.285224         0.371886
 H         0.103802        -1.273268        -0.775917
 H        -0.328994         0.959252        -2.219430
 H        -0.289592         2.248756        -1.044915
 H         0.725322         2.754219        -3.555456
 H         3.144302         1.964857        -3.805013
 H         3.820286         0.118111        -2.480121
 H         4.223840         1.408995        -1.362251
 H         2.846241        -0.647480        -0.441513
