19
Iteration:   805charge 0 multiplicity 1
 C         0.049447        -0.427267         0.047051
 C         1.108338         0.434034        -0.742033
 C         0.412053         1.401307        -1.647067
 C         1.219539         2.298022        -2.520284
 O         2.269226         3.158763        -1.974977
 C         2.636216         2.020233        -2.790224
 C         3.330850         0.970890        -1.988806
 C         2.568772         0.313326        -0.875654
 O         2.023619         1.161722         0.187822
 H        -0.558551         0.363816         0.584234
 H        -0.462282        -1.172692        -0.624069
 H         0.462409        -1.088485         0.848837
 H        -0.260947         0.896777        -2.315229
 H        -0.254673         2.047691        -1.091488
 H         0.620778         2.618616        -3.413885
 H         2.969721         2.238248        -3.790762
 H         3.678747         0.140275        -2.647032
 H         4.233538         1.473959        -1.518332
 H         3.034647        -0.627314        -0.614464
