19
Iteration:  4854charge 0 multiplicity 1
 C         0.094016        -0.466311         0.005420
 C         1.081990         0.488882        -0.731915
 C         0.450087         1.138979        -2.043369
 C         1.303925         2.141501        -2.804395
 O         2.107567         3.128923        -2.161668
 C         2.776039         1.944805        -2.663505
 C         3.473382         1.113481        -1.606788
 C         2.562025         0.504180        -0.538882
 O         1.803510         1.331430         0.242665
 H        -0.503302        -0.991810        -0.695544
 H         0.449071        -0.966876         0.947896
 H        -0.638882         0.135719         0.653058
 H         0.233075         0.265787        -2.741708
 H        -0.449997         1.592417        -1.758847
 H         0.730439         2.307758        -3.785058
 H         3.442576         2.239050        -3.558702
 H         4.099704         0.386276        -2.045765
 H         4.224041         1.767084        -1.133503
 H         2.976563        -0.336540         0.037076
