19
Iteration:   182charge 0 multiplicity 1
 C         0.181345        -0.539191        -0.065177
 C         1.069888         0.537988        -0.670910
 C         0.389148         1.537086        -1.614479
 C         1.234077         2.301946        -2.598891
 O         2.267987         3.306578        -2.199141
 C         2.660281         1.913909        -2.818916
 C         3.325708         0.882981        -1.874506
 C         2.514759         0.333961        -0.738185
 O         1.967326         1.090211         0.322356
 H         0.879699        -1.013421         0.649517
 H        -0.783100        -0.234928         0.496108
 H        -0.141982        -1.369910        -0.879758
 H        -0.423127         1.034490        -2.247341
 H        -0.107623         2.346473        -0.990342
 H         0.688066         2.578619        -3.540399
 H         2.872773         2.073897        -3.887186
 H         3.805615         0.077021        -2.468912
 H         4.198635         1.399375        -1.462854
 H         2.791977        -0.713059        -0.448319
