19
Iteration:  4714charge 0 multiplicity 1
 C         0.175566        -0.582667        -0.234140
 C         1.066312         0.550672        -0.761037
 C         0.483386         1.613446        -1.598126
 C         1.335668         1.891497        -2.817375
 O         2.118721         3.119263        -2.726754
 C         2.815949         1.860966        -2.720943
 C         3.401906         1.382760        -1.352378
 C         2.519078         0.423549        -0.525135
 O         1.742070         1.059263         0.448055
 H        -0.092707        -1.040541        -1.159522
 H         0.671074        -1.236519         0.493358
 H        -0.719216        -0.200307         0.342333
 H        -0.424821         1.287848        -1.963249
 H         0.150279         2.487842        -0.986069
 H         0.896587         1.932290        -3.740359
 H         3.392149         1.521893        -3.559977
 H         4.465588         1.095648        -1.415761
 H         3.427222         2.272679        -0.686885
 H         2.923224        -0.521839        -0.155564
