19
Iteration:  3927charge 0 multiplicity 1
 C         0.174710        -0.441461         0.065988
 C         1.099040         0.458774        -0.694242
 C         0.591361         1.060747        -2.035800
 C         1.324304         2.157436        -2.775292
 O         2.123671         3.115670        -2.028933
 C         2.815817         1.952656        -2.733527
 C         3.366358         1.014387        -1.753966
 C         2.560645         0.544291        -0.523566
 O         1.595825         1.483373         0.198101
 H        -0.376410        -1.190852        -0.598822
 H         0.704140        -0.869789         0.880002
 H        -0.701294         0.133033         0.437007
 H         0.554134         0.239106        -2.768428
 H        -0.486525         1.388921        -1.859434
 H         0.986897         2.443241        -3.774720
 H         3.572701         2.223930        -3.532679
 H         3.613176         0.033608        -2.258201
 H         4.385919         1.374125        -1.364776
 H         3.078338        -0.163635         0.157440
