19
Iteration:   227charge 0 multiplicity 1
 C         0.265109        -0.558293        -0.050279
 C         0.983788         0.554304        -0.679733
 C         0.319412         1.498659        -1.639790
 C         1.252366         2.305170        -2.522763
 O         2.295643         3.102181        -1.977925
 C         2.676490         1.859158        -2.784101
 C         3.353937         0.857113        -1.999357
 C         2.445017         0.365875        -0.829084
 O         1.996425         1.329593         0.186561
 H         0.621630        -0.754887         0.909094
 H        -0.892633        -0.351336         0.013716
 H         0.336061        -1.585598        -0.772625
 H        -0.482054         1.083014        -2.375913
 H        -0.183551         2.219921        -0.939075
 H         0.634019         2.810752        -3.267122
 H         3.014898         2.287477        -3.703824
 H         3.669378         0.036989        -2.715393
 H         4.243290         1.350745        -1.616304
 H         2.861407        -0.440806        -0.189840
