19
Iteration:  2823charge 0 multiplicity 1
 C         0.274727        -0.796669        -0.281584
 C         1.034039         0.556151        -0.640405
 C         0.405405         1.448791        -1.696817
 C         1.292877         1.992838        -2.745789
 O         2.237779         3.120155        -2.474751
 C         2.749184         1.772711        -2.746896
 C         3.407066         1.195753        -1.563674
 C         2.557240         0.686373        -0.514071
 O         1.671378         1.393130         0.443025
 H        -0.054622        -1.245443        -1.270836
 H         0.836227        -1.556179         0.302931
 H        -0.702804        -0.549048         0.242807
 H        -0.441672         0.818692        -2.112375
 H         0.031763         2.328195        -1.265940
 H         0.685006         2.292651        -3.748498
 H         3.307468         1.600753        -3.789931
 H         4.019404         0.276726        -1.793831
 H         4.188810         1.889237        -1.137024
 H         2.973524        -0.182894        -0.033189
