19
Iteration:  1679charge 0 multiplicity 1
 C         0.177448        -0.577082        -0.033464
 C         1.050611         0.536667        -0.597425
 C         0.482454         1.187644        -1.837900
 C         1.390834         2.023837        -2.780439
 O         2.089812         3.254809        -2.334646
 C         2.830692         1.987020        -2.721854
 C         3.374144         1.090497        -1.692712
 C         2.490331         0.455226        -0.551338
 O         1.778568         1.396128         0.325131
 H         0.170212        -0.599855         1.033228
 H        -0.928436        -0.448142        -0.228894
 H         0.374898        -1.524444        -0.612783
 H         0.044617         0.370420        -2.457667
 H        -0.408225         1.914216        -1.616095
 H         0.872360         2.294992        -3.617822
 H         3.486272         2.104675        -3.504641
 H         3.671070         0.186391        -2.286367
 H         4.343235         1.445581        -1.287346
 H         2.959038        -0.443254        -0.071485
