19
Iteration:  2886charge 0 multiplicity 1
 C         0.157866        -0.450219         0.078669
 C         1.017684         0.550577        -0.674463
 C         0.449773         1.252824        -1.963011
 C         1.448363         1.973592        -2.907666
 O         1.952640         3.131510        -2.270687
 C         2.872161         2.115992        -2.678684
 C         3.436632         1.120657        -1.608173
 C         2.528318         0.426502        -0.626147
 O         1.800321         1.230694         0.327989
 H         0.030224        -1.329543        -0.456698
 H         0.708240        -0.550592         1.093272
 H        -0.883058        -0.202397         0.324478
 H         0.059421         0.400392        -2.472278
 H        -0.441695         1.977167        -1.816590
 H         0.908255         2.253015        -3.831798
 H         3.633015         2.452323        -3.393262
 H         4.033595         0.265752        -2.082951
 H         4.010627         1.695372        -0.942148
 H         2.996701        -0.487129        -0.174180
