19
Iteration:  3156charge 0 multiplicity 1
 C         0.221719        -0.556116        -0.458866
 C         1.083439         0.613269        -0.641828
 C         0.382018         1.650234        -1.581200
 C         1.328844         1.858603        -2.789439
 O         2.055501         3.073017        -2.824113
 C         2.784774         1.759357        -2.612709
 C         3.436378         1.417010        -1.327610
 C         2.525455         0.470465        -0.542330
 O         1.812625         1.091333         0.584761
 H        -0.136461        -0.887220        -1.431527
 H         0.782600        -1.480080        -0.060051
 H        -0.558206        -0.273429         0.144100
 H        -0.626068         1.333515        -1.959812
 H         0.252115         2.644799        -1.135249
 H         1.094685         1.428026        -3.753252
 H         3.135299         1.465223        -3.580928
 H         4.376276         0.992841        -1.552451
 H         3.642854         2.252986        -0.570965
 H         3.029764        -0.517736        -0.213323
