19
Iteration:  4894
 C         0.138397        -0.299923         0.084660
 C         1.037907         0.550563        -0.780526
 C         0.473469         1.033458        -2.083848
 C         1.415998         1.979677        -2.758060
 O         1.873013         3.080922        -2.003949
 C         2.872170         2.117898        -2.433340
 C         3.496625         0.959225        -1.662769
 C         2.560148         0.454634        -0.702193
 O         1.812885         1.453204         0.055633
 H        -0.182944        -1.320162        -0.390531
 H         0.693281        -0.646054         0.966720
 H        -0.770383         0.312598         0.399318
 H         0.090397         0.164239        -2.666804
 H        -0.487115         1.742473        -1.789901
 H         1.150275         2.342875        -3.824141
 H         3.524657         2.579459        -3.168411
 H         3.639705         0.091510        -2.449575
 H         4.510444         1.140414        -1.208667
 H         2.951546        -0.345558        -0.048135
