19
Iteration:   890charge 0 multiplicity 1
 C         0.124152        -0.379471         0.036020
 C         1.091758         0.454133        -0.738530
 C         0.409079         1.326547        -1.745679
 C         1.210394         2.253580        -2.552043
 O         2.220378         3.197972        -1.901665
 C         2.636258         2.078806        -2.685652
 C         3.273134         0.843996        -2.039265
 C         2.560232         0.299218        -0.822909
 O         2.082959         1.236789         0.160762
 H        -0.280953         0.284419         0.911323
 H        -0.769918        -0.713450        -0.620707
 H         0.563360        -1.156810         0.563059
 H        -0.235647         0.656437        -2.557346
 H        -0.416823         1.952801        -1.170832
 H         0.710644         2.652183        -3.398344
 H         3.220779         2.363205        -3.563736
 H         3.333407         0.080891        -2.852108
 H         4.304953         1.085400        -1.850889
 H         3.107844        -0.534524        -0.406877
