19
Iteration:  3847charge 0 multiplicity 1
 C         0.193176        -0.547543        -0.121173
 C         1.049279         0.547260        -0.730386
 C         0.358866         1.394241        -1.815023
 C         1.327462         1.946270        -2.799702
 O         2.166954         3.069180        -2.396989
 C         2.792361         1.861442        -2.663689
 C         3.466103         1.318384        -1.516993
 C         2.539925         0.559918        -0.612778
 O         1.749367         1.218898         0.358889
 H         0.054492        -1.402061        -0.667689
 H         0.530062        -0.814784         0.917724
 H        -0.758798        -0.035133         0.053266
 H        -0.484029         0.837513        -2.331598
 H        -0.166938         2.177620        -1.384862
 H         0.850329         2.175809        -3.735447
 H         3.373624         1.596410        -3.590812
 H         4.183008         0.551694        -1.814635
 H         4.039003         1.990609        -0.824585
 H         3.029579        -0.499706        -0.285881
