19
Iteration:  1060
 C         0.134616        -0.591814         0.005061
 C         0.986071         0.541127        -0.669382
 C         0.434999         1.638365        -1.524494
 C         1.337821         2.187214        -2.606075
 O         2.132782         3.304407        -2.354074
 C         2.732887         1.982954        -2.764212
 C         3.381391         1.011273        -1.788186
 C         2.481117         0.278333        -0.864809
 O         1.982342         1.024452         0.282499
 H         0.264576        -0.533213         1.047539
 H        -0.862466        -0.706160        -0.373404
 H         0.648050        -1.602045        -0.211567
 H        -0.702117         1.447820        -1.970669
 H         0.299686         2.398028        -0.687836
 H         0.701881         2.367849        -3.486763
 H         3.009060         1.916338        -3.794561
 H         3.871098         0.276286        -2.495384
 H         4.242919         1.477248        -1.212053
 H         2.861215        -0.723980        -0.516253
