19
Iteration:  4690
 C         0.117855        -0.728841        -0.202146
 C         1.026029         0.527134        -0.677754
 C         0.561073         1.611858        -1.668212
 C         1.348509         1.907814        -2.908154
 O         2.103159         3.167991        -2.829977
 C         2.801448         1.923806        -2.603601
 C         3.455351         1.424834        -1.385896
 C         2.493267         0.466657        -0.526916
 O         1.701003         1.027296         0.519813
 H        -0.560455        -0.953574        -0.959047
 H         0.621482        -1.530275         0.260852
 H        -0.368153        -0.334453         0.779819
 H        -0.566527         1.655201        -1.731910
 H         0.593395         2.508559        -1.076228
 H         1.037038         1.878768        -3.882399
 H         3.555118         1.558184        -3.390892
 H         4.259253         0.863827        -1.779640
 H         3.997981         2.207382        -0.843325
 H         2.951643        -0.437737        -0.143900
