19
Iteration:   268
 C         0.114157        -0.372828         0.033940
 C         1.127030         0.455746        -0.702285
 C         0.408498         1.364743        -1.788344
 C         1.279680         2.254346        -2.594689
 O         2.108663         3.208304        -1.981626
 C         2.696900         2.079005        -2.686016
 C         3.264949         0.834072        -2.041647
 C         2.566005         0.259033        -0.823378
 O         2.076027         1.243044         0.295195
 H         0.496613        -0.905827         0.872929
 H        -0.730073         0.295460         0.370496
 H        -0.327071        -1.064463        -0.655824
 H        -0.202014         0.726673        -2.444368
 H        -0.286554         2.064472        -1.218657
 H         0.731086         2.730845        -3.528690
 H         3.390834         2.266351        -3.619274
 H         3.174063         0.053149        -2.798720
 H         4.335817         0.971741        -1.713620
 H         3.024523        -0.699063        -0.427634
