19
Iteration:   225
 C         0.277625        -0.566458        -0.062464
 C         0.952701         0.573445        -0.672051
 C         0.313511         1.494981        -1.649157
 C         1.266155         2.300889        -2.516467
 O         2.313693         3.102924        -1.979232
 C         2.654609         1.856038        -2.783582
 C         3.350051         0.862610        -1.996057
 C         2.435416         0.370700        -0.832005
 O         2.011994         1.318996         0.188217
 H         0.673266        -0.769541         0.940982
 H        -0.882459        -0.403025         0.030410
 H         0.376197        -1.537875        -0.757115
 H        -0.465966         1.043344        -2.348111
 H        -0.221271         2.252146        -0.941645
 H         0.609674         2.827383        -3.337773
 H         3.010770         2.285263        -3.802828
 H         3.690586         0.036572        -2.644734
 H         4.216494         1.415037        -1.539529
 H         2.830247        -0.458375        -0.182919
