19
Iteration:  2022charge 0 multiplicity 1
 C         0.186933        -0.426890        -0.081977
 C         1.074737         0.575118        -0.703765
 C         0.411284         1.132991        -1.941288
 C         1.326304         1.989249        -2.822343
 O         1.988274         3.059532        -2.101822
 C         2.826800         1.906273        -2.591625
 C         3.541189         1.007803        -1.602704
 C         2.578950         0.541414        -0.600043
 O         1.735697         1.540225         0.187508
 H        -0.139085        -1.151805        -0.882746
 H         0.582227        -1.024336         0.723529
 H        -0.746311         0.122818         0.214429
 H         0.112875         0.317740        -2.502308
 H        -0.550247         1.671253        -1.699230
 H         0.975059         2.238929        -3.803262
 H         3.545916         2.235673        -3.383323
 H         3.789067         0.169426        -2.289342
 H         4.486185         1.420811        -1.191410
 H         3.037979        -0.151458         0.185186
