19
Iteration:  2259
 C         0.119294        -0.514592        -0.047568
 C         1.012258         0.588143        -0.705409
 C         0.371508         1.235707        -1.916850
 C         1.391161         1.980897        -2.752816
 O         2.058346         3.110619        -2.287906
 C         2.887867         1.939709        -2.601450
 C         3.503047         1.149367        -1.543630
 C         2.506802         0.475197        -0.618882
 O         1.815523         1.355433         0.227959
 H        -0.585406        -1.248206        -0.628679
 H         0.781426        -0.935621         0.680245
 H        -0.623069         0.193598         0.437786
 H        -0.240188         0.496173        -2.546318
 H        -0.395039         1.872741        -1.628659
 H         1.214289         2.013494        -3.922463
 H         3.384655         2.116643        -3.573934
 H         4.244300         0.408356        -1.912450
 H         4.001926         1.934125        -0.980199
 H         2.769567        -0.410757        -0.114610
