19
Iteration:  4466
 C         0.192488        -0.779771        -0.373703
 C         0.986148         0.625101        -0.591020
 C         0.383825         1.597299        -1.667393
 C         1.292391         1.895445        -2.822174
 O         2.152111         3.066500        -2.519242
 C         2.796553         1.842631        -2.705485
 C         3.485938         1.237389        -1.443925
 C         2.547776         0.537874        -0.530407
 O         1.775495         1.332121         0.435677
 H         0.474377        -1.641341        -1.092187
 H         0.264249        -1.114666         0.760281
 H        -0.816819        -0.492471        -0.545021
 H        -0.583917         1.134207        -2.059416
 H         0.199691         2.423556        -1.052300
 H         0.809195         1.996474        -3.829101
 H         3.342305         1.781330        -3.647596
 H         4.211015         0.520323        -1.755424
 H         4.042082         2.062685        -1.117510
 H         3.030126        -0.369156        -0.101676
