19
Iteration:  1662
 C         0.208243        -0.576146        -0.163204
 C         1.092067         0.578111        -0.611427
 C         0.457402         1.278941        -1.811507
 C         1.232921         2.105815        -2.786334
 O         2.184978         3.157330        -2.362256
 C         2.742653         1.989458        -2.715607
 C         3.400727         1.006151        -1.639911
 C         2.543849         0.552451        -0.512130
 O         1.753720         1.348084         0.391099
 H         0.072876        -0.502833         1.015382
 H        -0.724390        -0.619814        -0.658893
 H         0.786511        -1.539138        -0.289837
 H         0.191315         0.382397        -2.422463
 H        -0.484596         1.641689        -1.576166
 H         0.768656         2.204742        -3.870618
 H         3.281655         2.038109        -3.783599
 H         3.690572         0.097516        -2.175096
 H         4.300513         1.448829        -1.201338
 H         2.999610        -0.293256         0.001643
