19
Iteration:   492charge 0 multiplicity 1
 C         0.039108        -0.338659         0.024877
 C         1.122746         0.542798        -0.661521
 C         0.379012         1.460352        -1.685819
 C         1.195074         2.280249        -2.613641
 O         2.177128         3.190782        -2.113603
 C         2.651596         2.042237        -2.821098
 C         3.336196         1.028296        -1.878230
 C         2.497790         0.220422        -0.867959
 O         2.190257         0.953430         0.317196
 H        -0.809693         0.193681         0.252443
 H        -0.219866        -1.122505        -0.606500
 H         0.471429        -0.850737         0.928669
 H        -0.394504         0.801799        -2.205444
 H        -0.403629         2.102511        -1.220642
 H         0.680447         2.802036        -3.406103
 H         3.239119         2.243988        -3.671475
 H         3.903970         0.183998        -2.391046
 H         4.198695         1.478295        -1.399725
 H         2.849830        -0.827040        -0.877866
