19
Iteration:  2115charge 0 multiplicity 1
 C         0.090924        -0.528286        -0.193921
 C         1.048200         0.586305        -0.607192
 C         0.444929         1.254340        -1.870119
 C         1.336443         1.898269        -2.848091
 O         2.033383         3.106967        -2.218899
 C         2.812930         1.931943        -2.628012
 C         3.510965         1.090374        -1.651515
 C         2.576907         0.518267        -0.466870
 O         1.804571         1.494807         0.270414
 H         0.026232        -1.250499        -1.067827
 H         0.623155        -1.239083         0.664767
 H        -0.946024        -0.286757         0.142666
 H        -0.074802         0.437995        -2.523668
 H        -0.373619         1.920527        -1.651812
 H         0.944664         2.211573        -3.858459
 H         3.320419         2.210575        -3.522875
 H         3.778448         0.133993        -2.150580
 H         4.399457         1.566905        -1.215514
 H         3.074735        -0.189116         0.167504
