19
Iteration:   790
 C         0.138736        -0.525827        -0.057868
 C         1.067798         0.463962        -0.620843
 C         0.379139         1.465851        -1.545092
 C         1.237400         2.289307        -2.578557
 O         2.284890         3.177574        -2.074608
 C         2.652882         2.049579        -2.818328
 C         3.276766         0.926721        -1.981491
 C         2.558582         0.343872        -0.774919
 O         2.002655         1.153182         0.182673
 H        -0.870190        -0.019107         0.157530
 H        -0.296631        -1.197916        -0.856748
 H         0.577459        -1.029692         0.768868
 H        -0.284221         0.922043        -2.145197
 H        -0.092726         2.151916        -0.784048
 H         0.670914         2.934579        -3.199560
 H         3.260240         2.198042        -3.701857
 H         3.287542         0.074669        -2.712158
 H         4.316935         1.117699        -1.793424
 H         3.143972        -0.459173        -0.319670
