19
Iteration:  3648
 C         0.181452        -0.441413        -0.079449
 C         1.101881         0.501679        -0.788806
 C         0.364780         1.155274        -1.923030
 C         1.334102         2.019756        -2.727164
 O         2.116594         3.145035        -2.182264
 C         2.753455         1.908294        -2.634552
 C         3.494751         1.058386        -1.572685
 C         2.531980         0.508713        -0.527626
 O         1.758551         1.446017         0.173080
 H         0.106973        -1.380268        -0.682735
 H         0.519050        -0.711427         0.860188
 H        -0.790042         0.036522        -0.016671
 H        -0.091409         0.462120        -2.604783
 H        -0.457463         1.881522        -1.469926
 H         1.124317         2.385210        -3.751056
 H         3.246995         2.030993        -3.608960
 H         3.989299         0.186798        -2.056086
 H         4.312681         1.646749        -1.048577
 H         2.923753        -0.369033         0.178438
