19
Iteration:  2851charge 0 multiplicity 1
 C         0.200950        -0.579753        -0.202629
 C         1.096366         0.563742        -0.707008
 C         0.364655         1.375445        -1.735234
 C         1.256652         1.976856        -2.719355
 O         2.110927         3.113217        -2.387879
 C         2.792454         1.848035        -2.643520
 C         3.454780         1.160868        -1.521122
 C         2.599135         0.519295        -0.504888
 O         1.754548         1.350121         0.181905
 H         0.019069        -1.274786        -1.024367
 H         0.723477        -1.282910         0.545614
 H        -0.687300        -0.153618         0.205498
 H        -0.271582         0.637716        -2.293144
 H        -0.356182         2.208473        -1.328828
 H         0.831498         2.101445        -3.639009
 H         3.317500         1.865933        -3.528526
 H         4.315808         0.541153        -1.810486
 H         3.964683         1.974529        -0.947012
 H         3.149807        -0.254190         0.127535
