19
Iteration:  2086charge 0 multiplicity 1
 C         0.149739        -0.398922         0.053111
 C         1.032916         0.529265        -0.715481
 C         0.526042         1.098083        -2.003393
 C         1.410183         2.005722        -2.844120
 O         2.017912         3.244512        -2.264563
 C         2.826287         2.011670        -2.602735
 C         3.451912         1.098039        -1.588223
 C         2.457743         0.408707        -0.569831
 O         1.767753         1.343650         0.261877
 H        -0.263353        -1.209625        -0.597928
 H         0.765176        -0.716560         0.748200
 H        -0.605403         0.021731         0.757464
 H         0.277155         0.196637        -2.644360
 H        -0.451660         1.629526        -1.812572
 H         0.846921         2.223613        -3.841848
 H         3.527091         2.301038        -3.502003
 H         3.856274         0.215238        -2.115492
 H         4.279893         1.503701        -0.997311
 H         2.971102        -0.449243        -0.090605
