19
Iteration:   483
 C         0.136837        -0.342209         0.004687
 C         1.059742         0.587208        -0.692708
 C         0.371469         1.518540        -1.663129
 C         1.181118         2.271974        -2.704428
 O         2.157342         3.214059        -2.122227
 C         2.661536         2.015442        -2.764939
 C         3.371655         1.003469        -1.879537
 C         2.525739         0.180623        -0.935609
 O         2.160048         0.919795         0.443125
 H        -0.685958         0.341472         0.412562
 H        -0.373634        -0.999184        -0.695990
 H         0.573825        -0.885848         0.820420
 H        -0.126987         0.670210        -2.338859
 H        -0.325750         2.189301        -1.102408
 H         0.594309         2.635662        -3.558524
 H         3.042971         2.162300        -3.738257
 H         3.733028         0.314698        -2.688071
 H         4.096053         1.590801        -1.325996
 H         2.749941        -0.841257        -0.668428
