19
Iteration:  2898
 C         0.102789        -0.419013         0.133878
 C         1.026165         0.541185        -0.641136
 C         0.530511         1.140707        -2.006760
 C         1.413923         1.978730        -2.907775
 O         1.952399         3.209960        -2.183055
 C         2.859684         2.087295        -2.638617
 C         3.417333         1.169218        -1.597168
 C         2.525853         0.371477        -0.644951
 O         1.807162         1.273187         0.247351
 H         0.121493        -1.349649        -0.321035
 H         0.523840        -0.682861         1.144524
 H        -0.894662         0.080238         0.200541
 H         0.282845         0.330038        -2.631765
 H        -0.436972         1.711339        -1.864838
 H         1.092326         2.204865        -4.008752
 H         3.533244         2.392091        -3.518562
 H         3.771586         0.347075        -2.344154
 H         4.353523         1.444803        -1.264018
 H         3.014901        -0.489529        -0.172010
