19
Iteration:  4643charge 0 multiplicity 1
 C         0.188720        -0.626184        -0.437070
 C         1.084151         0.575391        -0.632146
 C         0.440728         1.649400        -1.631745
 C         1.205696         1.889769        -2.804335
 O         2.196145         3.059490        -2.692510
 C         2.682714         1.741688        -2.692388
 C         3.462006         1.406920        -1.281726
 C         2.560192         0.537807        -0.519606
 O         1.796937         1.147833         0.501890
 H        -0.473107        -0.625092        -1.333251
 H         0.830554        -1.507300        -0.386663
 H        -0.298367        -0.740406         0.460952
 H        -0.681390         1.317396        -1.905123
 H         0.102847         2.526802        -1.150584
 H         0.852997         1.651042        -3.869988
 H         3.277914         1.356777        -3.569554
 H         4.415179         0.936276        -1.445071
 H         3.685341         2.316452        -0.767293
 H         2.946853        -0.501980        -0.383808
