19
Iteration:  4818charge 0 multiplicity 1
 C         0.270530        -0.656968        -0.154720
 C         0.977148         0.575897        -0.620421
 C         0.372469         1.380836        -1.792833
 C         1.344618         1.993632        -2.779151
 O         2.159870         3.118143        -2.372495
 C         2.804482         1.887596        -2.691904
 C         3.481318         1.126912        -1.551959
 C         2.454857         0.544296        -0.543791
 O         1.750853         1.372251         0.313456
 H        -0.055729        -1.289284        -1.052860
 H         0.853086        -1.370125         0.368597
 H        -0.667653        -0.316604         0.261441
 H        -0.275833         0.847624        -2.414952
 H        -0.258725         2.158876        -1.434545
 H         0.951600         2.232998        -3.854584
 H         3.486094         2.031673        -3.552111
 H         4.092794         0.304166        -2.016992
 H         4.095286         1.888796        -1.031434
 H         2.777439        -0.407431        -0.093806
