19
Iteration:  4930charge 0 multiplicity 1
 C         0.168057        -0.374641        -0.004200
 C         1.109156         0.604854        -0.701957
 C         0.509853         1.041219        -2.089150
 C         1.325671         2.127483        -2.808663
 O         2.021127         3.048035        -2.007766
 C         2.793959         1.954730        -2.603290
 C         3.409689         1.003791        -1.643283
 C         2.508841         0.473616        -0.612021
 O         1.794485         1.457894         0.176288
 H         0.078336        -1.325118        -0.537077
 H         0.694373        -0.507462         0.985368
 H        -0.906212         0.047193         0.153492
 H         0.374066         0.226382        -2.752542
 H        -0.593896         1.438818        -1.827792
 H         0.786095         2.633864        -3.763054
 H         3.523501         2.278102        -3.424683
 H         3.886178         0.098266        -2.188088
 H         4.236570         1.538084        -1.072600
 H         3.001493        -0.342004        -0.100495
