19
Iteration:  3595charge 0 multiplicity 1
 C         0.268727        -0.472608         0.029621
 C         0.999541         0.621242        -0.743841
 C         0.465433         1.010011        -2.072961
 C         1.335126         2.005807        -2.754361
 O         2.158199         3.088388        -2.024099
 C         2.821397         2.059742        -2.560893
 C         3.411379         0.928320        -1.748969
 C         2.485709         0.557685        -0.582481
 O         1.658487         1.553211         0.174128
 H        -0.121482        -1.418085        -0.496712
 H         0.975962        -0.788396         0.776919
 H        -0.550898         0.021868         0.658490
 H         0.604756         0.176179        -2.728522
 H        -0.579385         1.475856        -2.078123
 H         1.050714         2.515916        -3.616445
 H         3.507963         2.464523        -3.301938
 H         3.341753         0.080743        -2.450093
 H         4.487997         0.986794        -1.421080
 H         2.797873        -0.142730         0.081822
