19
Iteration:  3491
 C         0.211732        -0.613177        -0.224150
 C         1.071200         0.553859        -0.637276
 C         0.375525         1.463142        -1.711297
 C         1.353915         1.971644        -2.824646
 O         2.153179         3.203989        -2.629788
 C         2.786850         1.917516        -2.667011
 C         3.428158         1.222014        -1.482302
 C         2.552363         0.445269        -0.506791
 O         1.713671         1.210498         0.443050
 H         0.026473        -1.315322        -0.981827
 H         0.745165        -1.103138         0.621807
 H        -0.731414        -0.364069         0.165119
 H        -0.468051         0.965367        -2.127684
 H        -0.212993         2.313091        -1.139909
 H         0.983610         2.030013        -3.887452
 H         3.279545         1.631145        -3.612544
 H         4.220764         0.566906        -1.944190
 H         3.989034         1.830204        -0.769280
 H         2.977022        -0.556347        -0.087143
