19
Iteration:  2884
 C         0.161456        -0.458726         0.065630
 C         1.023833         0.557813        -0.684125
 C         0.452844         1.256386        -1.956369
 C         1.417161         1.984355        -2.906086
 O         1.960938         3.122590        -2.281195
 C         2.886015         2.111182        -2.668324
 C         3.447830         1.116287        -1.620831
 C         2.503011         0.436364        -0.614774
 O         1.805173         1.232658         0.334982
 H         0.034887        -1.404633        -0.478255
 H         0.717663        -0.578184         1.090562
 H        -0.846239        -0.162515         0.329700
 H        -0.045581         0.355893        -2.483224
 H        -0.442052         2.024835        -1.780877
 H         0.962818         2.186417        -3.808167
 H         3.582619         2.418260        -3.375007
 H         4.096414         0.322971        -2.078651
 H         4.019508         1.753687        -0.877104
 H         2.988747        -0.495644        -0.170939
