19
Iteration:  2864charge 0 multiplicity 1
 C         0.203742        -0.533572        -0.102764
 C         1.061548         0.512743        -0.728163
 C         0.355522         1.298295        -1.853595
 C         1.344864         1.967988        -2.820669
 O         2.060556         3.139768        -2.326058
 C         2.752921         1.906219        -2.636641
 C         3.515549         1.221395        -1.471525
 C         2.544350         0.446913        -0.633390
 O         1.812287         1.369848         0.300703
 H        -0.060412        -1.251391        -0.810214
 H         0.689133        -0.935142         0.862937
 H        -0.769786        -0.144825         0.191054
 H        -0.290204         0.683066        -2.401978
 H        -0.275536         2.061355        -1.330780
 H         0.981428         2.086821        -3.851907
 H         3.345669         1.924022        -3.553063
 H         4.064236         0.395413        -2.016226
 H         4.154863         1.851969        -0.939493
 H         2.889518        -0.511771        -0.172033
