19
Iteration:  3135charge 0 multiplicity 1
 C         0.244441        -0.636735        -0.393178
 C         1.089885         0.666140        -0.622806
 C         0.522544         1.626557        -1.553855
 C         1.258905         1.886382        -2.896949
 O         2.140841         3.032167        -2.698206
 C         2.782012         1.759635        -2.756673
 C         3.350402         1.384268        -1.377074
 C         2.533032         0.515405        -0.454998
 O         1.705933         1.121522         0.522411
 H        -0.201698        -0.996119        -1.321809
 H         1.015057        -1.478005        -0.130566
 H        -0.473690        -0.607264         0.426747
 H        -0.530200         1.318682        -1.736905
 H         0.447869         2.594921        -1.172493
 H         0.733901         1.941784        -3.830965
 H         3.373117         1.665826        -3.675550
 H         4.360609         1.076832        -1.324551
 H         3.493602         2.342119        -0.754490
 H         2.891649        -0.597505        -0.391655
