19
Iteration:  1384
 C         0.246617        -0.553326         0.140711
 C         0.974497         0.571955        -0.637753
 C         0.307975         1.540388        -1.760937
 C         1.355215         2.073527        -2.793913
 O         2.142977         3.224594        -2.303675
 C         2.769407         1.926487        -2.662335
 C         3.447856         1.087122        -1.627894
 C         2.465230         0.334513        -0.827230
 O         1.858347         1.146669         0.199309
 H         0.830002        -0.725387         1.026423
 H        -0.827135        -0.344940         0.244055
 H         0.245265        -1.561517        -0.467030
 H        -0.554046         0.933269        -2.259248
 H         0.041385         2.477212        -1.302008
 H         0.922916         2.168503        -3.795550
 H         3.539769         2.199320        -3.527913
 H         4.043292         0.313790        -2.171275
 H         4.108241         1.677320        -0.956181
 H         2.862409        -0.696671        -0.481073
