19
Iteration:  2882
 C         0.168476        -0.467967         0.056799
 C         1.028060         0.564082        -0.692910
 C         0.450769         1.258077        -1.950048
 C         1.388238         1.992194        -2.898630
 O         1.970301         3.117225        -2.288968
 C         2.893383         2.099500        -2.653359
 C         3.458985         1.115909        -1.628051
 C         2.480515         0.441160        -0.605228
 O         1.810607         1.238007         0.340264
 H         0.048751        -1.482377        -0.496106
 H         0.692120        -0.615841         1.026431
 H        -0.827338        -0.100138         0.330318
 H        -0.122477         0.355201        -2.483746
 H        -0.383926         2.017564        -1.744468
 H         0.988584         2.137195        -3.869599
 H         3.574358         2.401743        -3.416750
 H         4.143892         0.402147        -2.070283
 H         4.044247         1.789010        -0.846440
 H         2.958398        -0.474748        -0.182071
