19
Iteration:   193charge 0 multiplicity 1
 C         0.311358        -0.567993        -0.062044
 C         0.993452         0.607909        -0.633585
 C         0.329091         1.553582        -1.634345
 C         1.231905         2.405576        -2.596928
 O         2.321760         3.158452        -2.207186
 C         2.606873         1.927832        -2.781652
 C         3.361215         0.919477        -1.882352
 C         2.419618         0.274692        -0.821977
 O         1.972978         1.137218         0.341125
 H         0.879586        -1.004126         0.763568
 H        -0.725006        -0.244115         0.357954
 H         0.183309        -1.429194        -0.912547
 H        -0.327560         0.861494        -2.284997
 H        -0.429499         2.177743        -1.048576
 H         0.690936         2.839228        -3.480508
 H         3.223513         1.941249        -3.693233
 H         3.758257         0.087447        -2.509868
 H         4.176147         1.410990        -1.346478
 H         2.858077        -0.673037        -0.415850
