19
Iteration:  1406
 C         0.184737        -0.515545         0.007380
 C         1.034740         0.527012        -0.723942
 C         0.372304         1.434300        -1.709707
 C         1.306165         2.085373        -2.734393
 O         2.133164         3.119993        -2.245691
 C         2.802921         1.975104        -2.726907
 C         3.436122         1.064379        -1.705189
 C         2.459650         0.377729        -0.684546
 O         1.899489         1.287530         0.239709
 H         0.851507        -1.197767         0.481813
 H        -0.601425        -0.071577         0.614487
 H        -0.443878        -1.252793        -0.670748
 H        -0.307388         0.709736        -2.319561
 H        -0.197414         2.181742        -1.179623
 H         0.774325         2.357434        -3.658888
 H         3.435768         2.165472        -3.715517
 H         4.057487         0.288480        -2.173841
 H         4.036218         1.732029        -1.055250
 H         2.753990        -0.662389        -0.287989
