19
Iteration:  3324charge 0 multiplicity 1
 C         0.133916        -0.698287        -0.442300
 C         1.002072         0.598883        -0.577599
 C         0.418702         1.729153        -1.471549
 C         1.316675         1.858467        -2.722119
 O         2.176706         3.081857        -2.991508
 C         2.826009         1.750701        -2.730827
 C         3.466078         1.541528        -1.275844
 C         2.533385         0.596585        -0.553640
 O         1.745298         0.974476         0.596516
 H        -0.296354        -1.091550        -1.306361
 H         0.782509        -1.401683        -0.123855
 H        -0.586480        -0.614307         0.382136
 H        -0.562677         1.520034        -1.920186
 H         0.210875         2.576366        -0.912935
 H         1.058848         1.443469        -3.685986
 H         3.241193         1.216901        -3.595397
 H         4.477594         1.129922        -1.387534
 H         3.684158         2.460681        -0.747226
 H         2.911934        -0.523040        -0.491734
