19
Iteration:  3034charge 0 multiplicity 1
 C         0.144704        -0.553309        -0.221801
 C         1.072394         0.568877        -0.629013
 C         0.366766         1.393825        -1.710542
 C         1.329414         1.901930        -2.830523
 O         2.104977         3.096432        -2.412493
 C         2.844402         1.897164        -2.701136
 C         3.519594         1.291506        -1.532450
 C         2.582449         0.521659        -0.604303
 O         1.725028         1.250176         0.382914
 H        -0.046034        -1.422775        -0.927270
 H         0.295830        -0.969421         0.796408
 H        -0.733261         0.000766        -0.160239
 H        -0.314703         0.706486        -2.159527
 H        -0.205739         2.138338        -1.198881
 H         0.992106         1.789707        -3.888382
 H         3.306444         1.795414        -3.658426
 H         4.335708         0.606991        -1.777878
 H         3.864123         2.131623        -0.937369
 H         2.946495        -0.433240        -0.245421
