19
Iteration:   768charge 0 multiplicity 1
 C         0.301747        -0.671096        -0.173515
 C         1.083618         0.613924        -0.634565
 C         0.356415         1.675185        -1.563755
 C         1.243038         2.310221        -2.550578
 O         2.249830         3.239814        -2.120701
 C         2.579241         1.921664        -2.752205
 C         3.309827         0.769868        -2.012858
 C         2.465933         0.341225        -0.810877
 O         2.005765         1.217965         0.368852
 H        -0.850432        -0.535950        -0.069583
 H         0.151124        -1.384075        -1.034452
 H         0.805582        -1.045757         0.721163
 H        -0.291115         1.101277        -2.100902
 H        -0.122088         2.396234        -0.858819
 H         0.802794         2.534520        -3.503088
 H         3.031875         2.119570        -3.711182
 H         3.291702        -0.148156        -2.669264
 H         4.353301         0.884475        -1.784284
 H         2.707893        -0.620078        -0.354608
