19
Iteration:  1265
 C         0.254407        -0.522466         0.121128
 C         0.927491         0.510023        -0.693361
 C         0.313087         1.396636        -1.706861
 C         1.345635         2.188914        -2.667017
 O         2.246841         3.230891        -2.075884
 C         2.746774         2.051290        -2.674290
 C         3.348898         0.874398        -1.888817
 C         2.468928         0.342237        -0.809385
 O         1.902273         1.267804         0.104581
 H        -0.617562        -0.861376        -0.310779
 H         0.919502        -1.293411         0.207122
 H        -0.075861        -0.290464         1.203054
 H        -0.246856         0.824143        -2.343807
 H        -0.230049         2.179991        -1.145471
 H         0.878990         2.376656        -3.727498
 H         3.253584         2.289008        -3.671304
 H         3.727258         0.007202        -2.545381
 H         4.251805         1.326634        -1.411850
 H         2.930721        -0.476353        -0.277538
