19
Iteration:  4942
 C         0.136515        -0.426949        -0.026002
 C         0.997697         0.527101        -0.733846
 C         0.450383         1.076670        -1.975301
 C         1.342397         2.037568        -2.711399
 O         2.116959         3.102360        -2.062340
 C         2.824498         2.002424        -2.704428
 C         3.499559         1.081447        -1.689215
 C         2.519346         0.506798        -0.583805
 O         1.754414         1.454100         0.227356
 H         0.053998        -1.324155        -0.609161
 H         0.450662        -0.711800         1.029745
 H        -0.921742         0.032021         0.070672
 H         0.462126         0.190612        -2.583210
 H        -0.647807         1.402952        -1.886067
 H         0.891641         2.358301        -3.746604
 H         3.382762         2.236934        -3.661742
 H         3.884599         0.204505        -2.291262
 H         4.432626         1.549169        -1.261551
 H         2.859897        -0.344793         0.007770
