19
Iteration:   666charge 0 multiplicity 1
 C         0.128773        -0.380016         0.049811
 C         1.003006         0.599664        -0.630155
 C         0.407274         1.636165        -1.626846
 C         1.269340         2.189068        -2.710509
 O         2.018313         3.261587        -2.214424
 C         2.776844         2.019585        -2.744929
 C         3.393466         1.043453        -1.771957
 C         2.413148         0.149240        -0.889252
 O         2.139743         0.873974         0.270532
 H        -0.235604        -0.018561         0.955369
 H        -0.535646        -0.897882        -0.583090
 H         0.901508        -1.261977         0.376038
 H        -0.111997         0.945635        -2.167385
 H        -0.155360         2.464352        -1.249512
 H         0.784368         2.548884        -3.646748
 H         3.467700         2.135593        -3.717459
 H         3.942934         0.420617        -2.473052
 H         4.083629         1.538510        -1.086094
 H         2.667359        -0.987609        -0.804264
