19
Iteration:  2220
 C         0.050336        -0.434183        -0.216426
 C         1.141615         0.497459        -0.731410
 C         0.445228         1.324562        -1.847785
 C         1.372137         1.933008        -2.855720
 O         1.970796         3.097929        -2.328452
 C         2.809169         1.883964        -2.695523
 C         3.447835         1.169168        -1.537613
 C         2.606025         0.475569        -0.508065
 O         1.815767         1.328026         0.395131
 H        -0.342513        -1.158052        -0.897872
 H         0.395041        -0.975438         0.678176
 H        -0.759138         0.190116         0.162908
 H        -0.351710         0.742420        -2.267094
 H         0.021478         2.232878        -1.235801
 H         1.018573         2.002480        -3.827019
 H         3.468476         2.036487        -3.551413
 H         4.227065         0.499162        -1.915196
 H         4.034283         1.898977        -0.906021
 H         3.268590        -0.333828         0.014036
