19
Iteration:  3129charge 0 multiplicity 1
 C         0.251253        -0.677546        -0.356845
 C         1.024035         0.563215        -0.596482
 C         0.480565         1.609801        -1.570147
 C         1.279670         1.920775        -2.904591
 O         2.200097         3.039029        -2.686989
 C         2.767067         1.783219        -2.768999
 C         3.371494         1.430880        -1.383915
 C         2.540624         0.545508        -0.484223
 O         1.705045         1.135120         0.538119
 H        -0.197820        -1.067932        -1.289382
 H         0.939336        -1.440388        -0.198001
 H        -0.590679        -0.561606         0.455982
 H        -0.584181         1.407319        -1.713739
 H         0.615181         2.684996        -1.107090
 H         0.858033         1.874880        -3.950116
 H         3.232633         1.515731        -3.779564
 H         4.384968         0.898901        -1.611615
 H         3.402972         2.348695        -0.832160
 H         2.915875        -0.416686        -0.198749
