19
Iteration:  3657charge 0 multiplicity 1
 C         0.187944        -0.432370        -0.153405
 C         1.060581         0.564412        -0.744014
 C         0.345764         1.222339        -1.889614
 C         1.332640         1.983475        -2.686677
 O         2.096946         3.090176        -2.215372
 C         2.801952         1.834153        -2.617989
 C         3.473667         1.134840        -1.503742
 C         2.541862         0.523547        -0.620407
 O         1.794603         1.393334         0.163743
 H         0.053134        -1.360111        -0.721425
 H         0.532930        -0.591080         0.829420
 H        -0.755783         0.029195        -0.092675
 H        -0.357845         0.562048        -2.427096
 H        -0.311910         1.818116        -1.476125
 H         0.802979         2.072453        -3.686129
 H         3.475301         2.129552        -3.422266
 H         4.111085         0.369073        -1.988654
 H         4.153382         1.773759        -0.911066
 H         3.134885        -0.353223        -0.076838
