19
Iteration:   222
 C         0.281272        -0.588912        -0.080785
 C         0.926395         0.604881        -0.662995
 C         0.297556         1.500112        -1.656968
 C         1.278290         2.297561        -2.514172
 O         2.340462         3.100302        -1.983054
 C         2.616518         1.873441        -2.797069
 C         3.344259         0.869342        -1.980807
 C         2.425251         0.376635        -0.828379
 O         2.028933         1.300746         0.186287
 H         0.747046        -0.800173         0.968638
 H        -0.763145        -0.491827         0.060193
 H         0.437794        -1.377260        -0.664120
 H        -0.401633         0.984005        -2.257006
 H        -0.265647         2.245800        -1.032251
 H         0.669670         2.799334        -3.375829
 H         3.002944         2.188110        -3.853936
 H         3.730992         0.024847        -2.519511
 H         4.158972         1.457793        -1.442093
 H         2.786298        -0.495260        -0.264135
