19
Iteration:  1138charge 0 multiplicity 1
 C         0.205924        -0.574266         0.004908
 C         1.032289         0.550774        -0.689968
 C         0.330680         1.450685        -1.691897
 C         1.268321         2.293323        -2.525558
 O         2.338919         3.142613        -2.079408
 C         2.636212         1.892254        -2.810977
 C         3.363760         0.973622        -1.861808
 C         2.491031         0.365739        -0.779467
 O         1.917067         1.257064         0.170783
 H         0.850428        -1.448892         0.231116
 H        -0.181741        -0.334842         1.015212
 H        -0.573454        -0.868915        -0.628594
 H        -0.406193         1.018376        -2.481721
 H        -0.414283         2.092943        -1.187118
 H         0.831050         2.585854        -3.448889
 H         2.981282         2.083075        -3.799685
 H         3.677575         0.215400        -2.610248
 H         4.247471         1.486703        -1.399027
 H         3.000572        -0.499799        -0.278485
