19
Iteration:  3633charge 0 multiplicity 1
 C         0.150799        -0.548572         0.015870
 C         1.054918         0.513797        -0.671364
 C         0.507641         1.197958        -1.987142
 C         1.320422         2.141339        -2.833417
 O         2.127677         3.117992        -2.150770
 C         2.821853         1.983690        -2.637199
 C         3.446363         0.973229        -1.659698
 C         2.548487         0.504246        -0.498888
 O         1.672277         1.486420         0.166652
 H        -0.044418        -1.433166        -0.555763
 H         0.677014        -0.781944         0.999654
 H        -0.813544        -0.116652         0.252693
 H         0.174712         0.342932        -2.662866
 H        -0.400514         1.490015        -1.765930
 H         0.660486         2.289192        -3.717473
 H         3.564265         2.220387        -3.448819
 H         3.780432         0.152387        -2.321091
 H         4.363101         1.421767        -1.310479
 H         3.066533        -0.283152         0.152765
