19
Iteration:  3237charge 0 multiplicity 1
 C         0.219823        -0.693233        -0.457448
 C         1.021872         0.619952        -0.603861
 C         0.375071         1.751834        -1.505758
 C         1.319838         1.920517        -2.717905
 O         2.188379         3.027329        -2.976918
 C         2.758890         1.727428        -2.625584
 C         3.412288         1.515468        -1.288593
 C         2.505009         0.511597        -0.555122
 O         1.816238         1.005733         0.579041
 H         0.320500        -1.280562        -1.380201
 H         0.562362        -1.173050         0.405877
 H        -0.943716        -0.522281        -0.333799
 H        -0.606152         1.615135        -1.916242
 H         0.363014         2.647390        -0.969251
 H         0.845038         1.522346        -3.629851
 H         3.230996         1.341772        -3.556517
 H         4.530466         1.265511        -1.284742
 H         3.350364         2.491934        -0.735510
 H         2.958875        -0.542364        -0.576685
