19
Iteration:  3111charge 0 multiplicity 1
 C         0.189351        -0.823612        -0.285216
 C         1.048616         0.501547        -0.664439
 C         0.427045         1.644949        -1.581036
 C         1.330178         1.961075        -2.721778
 O         2.215949         3.160432        -2.818360
 C         2.802172         1.745358        -2.708015
 C         3.423165         1.411487        -1.451797
 C         2.508110         0.589830        -0.515231
 O         1.680602         1.156541         0.519569
 H        -0.311280        -1.284408        -1.173883
 H         0.734867        -1.690255         0.226992
 H        -0.506125        -0.474062         0.341497
 H        -0.551093         1.463097        -2.031887
 H         0.270850         2.541959        -0.896571
 H         0.777926         1.844333        -3.641885
 H         3.316768         1.547790        -3.576248
 H         4.259613         0.781930        -1.536970
 H         3.884788         2.288466        -0.972386
 H         3.070384        -0.311587        -0.224037
