19
Iteration:  1344charge 0 multiplicity 1
 C         0.063492        -0.516285        -0.117175
 C         1.105199         0.564864        -0.596691
 C         0.425262         1.418248        -1.628396
 C         1.272947         2.137769        -2.718057
 O         2.173028         3.233567        -2.319237
 C         2.678715         1.869591        -2.763357
 C         3.401761         1.050254        -1.751053
 C         2.612499         0.386715        -0.643064
 O         1.922234         1.197205         0.331942
 H        -0.571092        -0.275908         0.701812
 H        -0.687384        -0.558273        -0.858880
 H         0.466283        -1.540479        -0.159720
 H        -0.257863         0.817597        -2.159466
 H        -0.275967         2.120817        -1.080380
 H         0.687035         2.406182        -3.685929
 H         3.229050         1.887355        -3.682189
 H         4.010906         0.262513        -2.280069
 H         4.221741         1.732784        -1.468224
 H         2.980752        -0.527967        -0.297819
