19
Iteration:   913
 C         0.190114        -0.501073         0.002173
 C         1.043098         0.567605        -0.633312
 C         0.368314         1.394817        -1.666880
 C         1.208356         2.419584        -2.471771
 O         2.330476         3.063795        -1.964305
 C         2.593711         1.974038        -2.847528
 C         3.331373         0.910399        -1.996872
 C         2.512223         0.306025        -0.852622
 O         2.008220         1.242953         0.172884
 H        -0.707129        -0.063625         0.575968
 H        -0.255365        -1.030173        -0.901723
 H         0.691875        -1.172241         0.702834
 H         0.008721         0.513802        -2.425770
 H        -0.600715         1.930406        -1.266517
 H         0.625901         3.045276        -3.158228
 H         2.994656         2.120907        -3.814402
 H         3.706664         0.174123        -2.719284
 H         4.228010         1.419782        -1.670418
 H         2.972740        -0.554435        -0.435167
