19
Iteration:  2245
 C         0.049836        -0.393100        -0.103885
 C         1.062592         0.563472        -0.683431
 C         0.369855         1.281424        -1.871806
 C         1.353149         1.864975        -2.838960
 O         2.024826         3.058215        -2.240307
 C         2.826281         1.916929        -2.639726
 C         3.584614         1.237884        -1.496494
 C         2.573289         0.422630        -0.671028
 O         1.807627         1.376911         0.254976
 H        -0.202198        -0.917739        -0.989752
 H         0.382852        -1.310406         0.574560
 H        -0.787133        -0.003206         0.436079
 H        -0.177620         0.502961        -2.389811
 H        -0.305967         2.132654        -1.496124
 H         0.873658         2.062740        -3.818808
 H         3.471571         2.031302        -3.491288
 H         4.373121         0.579676        -1.942884
 H         4.138493         1.849215        -0.748737
 H         3.113266        -0.469853        -0.092168
