19
Iteration:  2369
 C         0.220180        -0.435754        -0.023835
 C         1.086194         0.545254        -0.735988
 C         0.364959         1.247607        -1.930408
 C         1.403073         1.915715        -2.810252
 O         2.055313         3.119490        -2.219923
 C         2.828833         1.966370        -2.625445
 C         3.431815         1.121708        -1.601115
 C         2.500142         0.470666        -0.580922
 O         1.771328         1.397309         0.261058
 H         0.157743        -1.445296        -0.624038
 H         0.469225        -0.654888         0.959876
 H        -0.870949        -0.103063        -0.000815
 H        -0.118377         0.407414        -2.576355
 H        -0.368901         1.913689        -1.492596
 H         0.989670         2.198829        -3.868769
 H         3.509442         2.140008        -3.491989
 H         3.921940         0.232589        -2.075769
 H         4.281582         1.647963        -1.182317
 H         2.815277        -0.429788         0.005112
