19
Iteration:  2326
 C         0.262038        -0.535817        -0.137590
 C         1.045174         0.613918        -0.643814
 C         0.397811         1.136509        -1.911147
 C         1.330000         2.026570        -2.692749
 O         2.180675         3.020873        -2.054794
 C         2.797488         1.880731        -2.685204
 C         3.436089         0.990622        -1.684460
 C         2.520762         0.591312        -0.529577
 O         1.671353         1.632282         0.145085
 H         0.319798        -1.455641        -0.848868
 H         0.448852        -0.826472         0.844552
 H        -0.872162        -0.327605        -0.256024
 H         0.016569         0.271145        -2.561448
 H        -0.410244         1.741801        -1.660985
 H         0.908176         2.308359        -3.735593
 H         3.455801         2.116297        -3.560174
 H         3.699082         0.127382        -2.340464
 H         4.360127         1.442320        -1.340920
 H         3.003812        -0.132638         0.052911
