19
Iteration:   308
 C         0.160029        -0.326546         0.179082
 C         1.065237         0.607967        -0.714231
 C         0.258930         1.359539        -1.868230
 C         1.262958         2.258818        -2.616691
 O         2.181412         3.122174        -1.944875
 C         2.680775         2.015323        -2.698287
 C         3.392573         0.984763        -1.851303
 C         2.446272         0.220606        -0.942586
 O         2.114119         1.118782         0.143960
 H         0.775015        -1.294568         0.567870
 H        -0.131387         0.254777         1.039662
 H        -0.770937        -0.748329        -0.369331
 H        -0.213977         0.677002        -2.590765
 H        -0.543645         1.939642        -1.453280
 H         0.874785         2.640711        -3.544255
 H         3.134993         2.244428        -3.669351
 H         4.074209         0.377261        -2.471768
 H         4.089099         1.523265        -1.166562
 H         2.828980        -0.770794        -0.762827
