19
Iteration:  3368charge 0 multiplicity 1
 C         0.128695        -0.587553        -0.328721
 C         1.073616         0.579677        -0.677502
 C         0.581221         1.645963        -1.580351
 C         1.299261         1.860350        -2.852545
 O         2.156346         3.132568        -2.826304
 C         2.761815         1.764851        -2.728576
 C         3.237861         1.494107        -1.285474
 C         2.595769         0.368781        -0.506507
 O         1.829857         1.014091         0.534318
 H        -0.013161        -1.263382        -1.105295
 H         0.407725        -1.144533         0.451611
 H        -0.846739        -0.150390        -0.061290
 H        -0.553480         1.474356        -1.656641
 H         0.612236         2.634727        -1.198103
 H         0.802053         1.823213        -3.823886
 H         3.420499         1.610586        -3.575994
 H         4.326629         1.571995        -1.123326
 H         2.877131         2.407300        -0.832780
 H         3.091280        -0.691677        -0.284432
