19
Iteration:  2189
 C         0.195736        -0.667529        -0.080826
 C         1.006799         0.620989        -0.625713
 C         0.409140         1.366036        -1.776235
 C         1.302703         2.060514        -2.790515
 O         2.220240         3.176591        -2.534616
 C         2.895727         1.993940        -2.668376
 C         3.394625         1.150603        -1.557592
 C         2.497737         0.437231        -0.580799
 O         1.685584         1.299877         0.354513
 H         0.235069        -1.601816        -0.533988
 H         0.930142        -0.815345         0.803129
 H        -0.819661        -0.529655         0.149880
 H         0.001996         0.562300        -2.310958
 H        -0.530113         1.938846        -1.553473
 H         0.859219         2.105682        -3.734190
 H         3.512171         1.927264        -3.530682
 H         3.932995         0.317159        -2.030689
 H         4.108263         1.582972        -0.825095
 H         2.881270        -0.491466         0.014405
