19
Iteration:  2496
 C         0.283559        -0.649264        -0.129858
 C         1.066198         0.514744        -0.712174
 C         0.350230         1.350102        -1.782183
 C         1.353292         2.058838        -2.756946
 O         2.177702         3.286122        -2.528068
 C         2.827072         1.838539        -2.678679
 C         3.459571         1.003859        -1.626574
 C         2.527437         0.599414        -0.399780
 O         1.587306         1.361992         0.382968
 H        -0.055132        -1.504864        -0.793888
 H         1.121595        -1.162008         0.561850
 H        -0.579051        -0.408851         0.531799
 H        -0.290453         0.754051        -2.360022
 H        -0.272028         2.149963        -1.274989
 H         1.006584         2.183983        -3.745931
 H         3.417856         1.805691        -3.611349
 H         3.820757         0.093135        -2.164672
 H         4.345330         1.619674        -1.240323
 H         2.866246        -0.333401         0.063395
