19
Iteration:  4796charge 0 multiplicity 1
 C         0.225328        -0.766368        -0.221007
 C         1.034308         0.551209        -0.678440
 C         0.385697         1.560914        -1.697270
 C         1.336385         1.958503        -2.810099
 O         2.133267         3.134578        -2.490083
 C         2.836698         1.906301        -2.692663
 C         3.461174         1.144935        -1.511224
 C         2.511699         0.545031        -0.515392
 O         1.682877         1.360425         0.361245
 H         0.269131        -1.781801        -0.751634
 H         0.844763        -1.163263         0.543679
 H        -0.825155        -0.679722         0.039539
 H        -0.583808         1.255886        -2.055168
 H         0.256312         2.354333        -1.009820
 H         0.984797         1.901228        -3.957716
 H         3.465404         1.864845        -3.627653
 H         3.838011         0.260421        -2.099552
 H         4.272988         1.685784        -0.979101
 H         2.954032        -0.266012         0.080643
