19
Iteration:  3450charge 0 multiplicity 1
 C         0.258164        -0.697747        -0.429792
 C         1.070796         0.619283        -0.619508
 C         0.410013         1.614583        -1.594592
 C         1.210514         1.892983        -2.816320
 O         2.274029         3.049488        -2.563432
 C         2.678790         1.751561        -2.769329
 C         3.422401         1.308211        -1.442210
 C         2.525825         0.514310        -0.459893
 O         1.713961         1.261414         0.479100
 H         0.057035        -1.051187        -1.512985
 H         1.002038        -1.413118         0.104875
 H        -0.746213        -0.671507         0.012298
 H        -0.568688         1.350217        -1.842120
 H         0.404442         2.644977        -1.074080
 H         0.834098         1.645014        -3.822287
 H         3.219826         1.618873        -3.715987
 H         4.448296         0.876455        -1.568432
 H         3.596766         2.345840        -1.046482
 H         3.060502        -0.214866         0.008075
