19
Iteration:    60charge 0 multiplicity 1
 C         0.154314        -0.612224        -0.208220
 C         1.089232         0.511393        -0.664363
 C         0.326097         1.577539        -1.455399
 C         1.180085         2.260086        -2.569483
 O         2.293694         3.229226        -2.277481
 C         2.676071         1.947614        -2.854697
 C         3.354475         0.898185        -1.915015
 C         2.574492         0.304371        -0.694950
 O         1.950776         1.207162         0.352694
 H         0.512069        -1.173629         0.792700
 H        -0.772101        -0.076312         0.150840
 H         0.031803        -1.432784        -0.918498
 H        -0.627453         1.227106        -1.892438
 H         0.147803         2.399135        -0.652506
 H         0.690692         2.637559        -3.513429
 H         2.932809         2.064170        -3.908623
 H         3.733718         0.078015        -2.529851
 H         4.286996         1.412900        -1.534454
 H         2.942797        -0.612427        -0.236924
