19
Iteration:  4274
 C         0.292300        -0.545646         0.022674
 C         1.045655         0.486980        -0.776077
 C         0.375277         1.259898        -1.954509
 C         1.358673         2.105837        -2.762333
 O         2.154590         3.174074        -2.215315
 C         2.788494         1.948867        -2.581643
 C         3.489598         1.051568        -1.573476
 C         2.491055         0.440291        -0.622329
 O         1.638686         1.400482         0.160053
 H         0.326094        -1.600420        -0.182891
 H         0.775152        -0.448987         0.951983
 H        -0.844786        -0.286632         0.225371
 H        -0.019321         0.640434        -2.763008
 H        -0.450092         1.934458        -1.522070
 H         0.892282         2.322373        -3.700391
 H         3.336619         1.952385        -3.560790
 H         4.057572         0.123917        -1.939109
 H         4.252703         1.710040        -1.029238
 H         2.920248        -0.358696        -0.015565
