19
Iteration:  1686charge 0 multiplicity 1
 C         0.120257        -0.570909         0.014803
 C         1.055253         0.518716        -0.620034
 C         0.451292         1.205820        -1.898264
 C         1.407599         2.050830        -2.759454
 O         2.053581         3.224133        -2.300769
 C         2.842009         2.008284        -2.694503
 C         3.390890         1.056219        -1.668189
 C         2.541375         0.463132        -0.588105
 O         1.784935         1.403074         0.294476
 H         0.429470        -0.822379         1.058506
 H        -0.984364        -0.348684        -0.078013
 H         0.340556        -1.447730        -0.502205
 H        -0.061656         0.464752        -2.459143
 H        -0.343632         1.906938        -1.616089
 H         1.050492         2.094735        -3.894400
 H         3.403339         2.168623        -3.759348
 H         3.771327         0.189504        -2.248832
 H         4.256288         1.479029        -1.112092
 H         3.052349        -0.344544        -0.105907
