19
Iteration:  1335charge 0 multiplicity 1
 C         0.035431        -0.543576        -0.187073
 C         1.071327         0.554637        -0.580453
 C         0.424676         1.487571        -1.590080
 C         1.231023         2.161397        -2.697651
 O         2.189351         3.099512        -2.283474
 C         2.689379         1.898331        -2.808062
 C         3.425231         1.061159        -1.800604
 C         2.626748         0.456097        -0.606003
 O         1.940899         1.216323         0.340014
 H        -0.670660        -0.158387         0.654913
 H        -0.428678        -0.719400        -1.250854
 H         0.414302        -1.497649         0.194362
 H         0.072924         0.694734        -2.200534
 H        -0.353739         2.114686        -1.100926
 H         0.618766         2.347336        -3.601928
 H         3.122372         1.933764        -3.731278
 H         3.814708         0.237210        -2.364965
 H         4.222884         1.671289        -1.404228
 H         3.103235        -0.434282        -0.240010
