19
Iteration:  3344charge 0 multiplicity 1
 C         0.164975        -0.588911        -0.349627
 C         1.027836         0.589624        -0.609381
 C         0.441807         1.658437        -1.549482
 C         1.311594         1.956641        -2.809025
 O         2.208020         3.047663        -2.978202
 C         2.793471         1.786140        -2.645360
 C         3.344686         1.568004        -1.305501
 C         2.512645         0.498231        -0.589118
 O         1.830216         0.896285         0.660818
 H        -0.090606        -1.024942        -1.309192
 H         0.558828        -1.416925         0.203064
 H        -0.735483        -0.220153         0.105604
 H        -0.524313         1.109839        -2.028812
 H         0.010693         2.520703        -1.130067
 H         0.895460         1.836261        -3.801587
 H         3.379823         1.317342        -3.455386
 H         4.365026         1.249631        -1.329396
 H         3.314579         2.553895        -0.812176
 H         3.092081        -0.510898        -0.466661
