19
Iteration:   435charge 0 multiplicity 1
 C         0.082570        -0.636823        -0.057587
 C         1.007323         0.463912        -0.667004
 C         0.407822         1.597544        -1.455905
 C         1.224514         2.204562        -2.565471
 O         2.245666         3.226795        -2.234933
 C         2.693821         1.995713        -2.714239
 C         3.384650         0.932329        -1.920970
 C         2.535924         0.321908        -0.874738
 O         2.006251         1.216311         0.209951
 H        -0.051152        -0.508519         0.914994
 H        -0.881391        -0.541302        -0.521479
 H         0.501406        -1.670364        -0.149254
 H        -0.556244         1.262010        -1.793894
 H         0.336295         2.430163        -0.727765
 H         0.707122         2.328689        -3.555393
 H         3.059545         2.091944        -3.757464
 H         3.877871         0.134913        -2.511944
 H         4.040414         1.604906        -1.330847
 H         2.943229        -0.622189        -0.485338
