19
Iteration:  3372
 C         0.119039        -0.583958        -0.328019
 C         1.078079         0.546600        -0.696044
 C         0.604561         1.649361        -1.548147
 C         1.296206         1.867447        -2.855917
 O         2.112112         3.113692        -2.814558
 C         2.803019         1.760998        -2.712460
 C         3.251532         1.478191        -1.303242
 C         2.556640         0.384039        -0.503955
 O         1.832092         1.025260         0.515645
 H        -0.040790        -1.316476        -1.185030
 H         0.442682        -1.179079         0.634568
 H        -0.892338        -0.198553        -0.087954
 H        -0.398461         1.593614        -1.775793
 H         0.629030         2.714084        -1.083393
 H         0.859805         1.928167        -3.877311
 H         3.448451         1.561940        -3.573262
 H         4.369404         1.614022        -1.162149
 H         2.957980         2.449420        -0.852975
 H         3.047628        -0.492591        -0.278574
