19
Iteration:  3289
 C         0.229427        -0.677492        -0.566656
 C         1.083078         0.583690        -0.684432
 C         0.650158         1.766882        -1.470759
 C         1.330614         1.846083        -2.914635
 O         2.037316         3.061715        -2.846995
 C         2.677840         1.716819        -2.728223
 C         3.380245         1.416774        -1.256842
 C         2.548335         0.517043        -0.354014
 O         1.703062         1.129932         0.604724
 H        -0.318696        -0.936930        -1.449715
 H         0.950869        -1.402581        -0.260946
 H        -0.483528        -0.602402         0.178265
 H        -0.530150         1.720476        -1.503996
 H         1.097948         2.617468        -1.062080
 H         0.757429         1.613234        -3.778348
 H         3.142791         1.216564        -3.613636
 H         4.281368         0.893919        -1.249080
 H         3.386569         2.469470        -0.903321
 H         3.102731        -0.550944        -0.167143
