19
Iteration:  1623charge 0 multiplicity 1
 C         0.265896        -0.623106        -0.118248
 C         1.044975         0.560213        -0.726122
 C         0.336565         1.423485        -1.699878
 C         1.290262         2.027316        -2.762063
 O         2.188302         2.994217        -2.255148
 C         2.778757         1.901012        -2.720635
 C         3.446343         1.125116        -1.617534
 C         2.530893         0.498789        -0.648954
 O         1.719185         1.440529         0.230209
 H        -0.357441        -0.355966         0.688426
 H        -0.306587        -1.234570        -0.994163
 H         1.080953        -1.312633         0.382169
 H        -0.402387         0.796639        -2.207854
 H        -0.182964         2.269451        -1.017259
 H         0.876866         2.307958        -3.663348
 H         3.291315         1.895656        -3.663225
 H         4.160789         0.318016        -1.943947
 H         4.052378         1.856160        -1.018192
 H         2.976600        -0.299091        -0.034586
