19
Iteration:  2374charge 0 multiplicity 1
 C         0.184611        -0.449972        -0.004051
 C         1.054535         0.543876        -0.720114
 C         0.405579         1.232779        -1.909586
 C         1.392280         1.904804        -2.838208
 O         2.070820         3.160423        -2.253888
 C         2.832120         2.048661        -2.631962
 C         3.453095         1.061562        -1.589460
 C         2.499527         0.475285        -0.602929
 O         1.746122         1.366821         0.272466
 H         0.049531        -1.358394        -0.521448
 H         0.640706        -0.687518         1.047000
 H        -0.849868        -0.159266         0.044789
 H        -0.054160         0.469966        -2.476555
 H        -0.390238         1.935362        -1.553976
 H         1.068903         2.068836        -3.809400
 H         3.416365         2.047259        -3.562747
 H         4.012389         0.277093        -2.101206
 H         4.211723         1.699410        -1.050728
 H         2.995492        -0.377467        -0.144189
