19
Iteration:  3403
 C         0.119556        -0.678528        -0.361418
 C         1.044282         0.587357        -0.589236
 C         0.413604         1.660404        -1.493450
 C         1.350805         1.757840        -2.749032
 O         2.154656         3.133259        -2.908001
 C         2.779441         1.926096        -2.658352
 C         3.538487         1.419758        -1.398809
 C         2.520468         0.559341        -0.514405
 O         1.699650         1.003555         0.526194
 H         0.048434        -1.250625        -1.252219
 H         0.603360        -1.210266         0.465100
 H        -0.893804        -0.374501        -0.142729
 H        -0.551369         1.430302        -1.869449
 H         0.516296         2.729793        -1.018533
 H         0.805162         1.752860        -3.774779
 H         3.338399         1.457951        -3.480897
 H         4.411848         0.812621        -1.859273
 H         3.966039         2.283373        -0.879539
 H         2.920029        -0.467216        -0.295380
