19
Iteration:  2970
 C         0.287139        -0.536073         0.042443
 C         0.986337         0.590212        -0.719618
 C         0.392026         1.096260        -2.010321
 C         1.410410         2.052569        -2.747852
 O         2.088965         3.010447        -2.034261
 C         2.908067         1.996380        -2.758827
 C         3.449830         1.041149        -1.667130
 C         2.441388         0.646297        -0.587492
 O         1.667969         1.499212         0.197231
 H        -0.121306        -1.317278        -0.658069
 H         0.939239        -1.160792         0.757244
 H        -0.490162        -0.035831         0.553200
 H         0.047814         0.244295        -2.657331
 H        -0.451367         1.675941        -1.866932
 H         1.132050         2.453118        -3.655676
 H         3.371217         2.369199        -3.606969
 H         3.605147         0.115841        -2.113404
 H         4.537946         1.268833        -1.344979
 H         2.845887        -0.250635        -0.010493
