19
Iteration:  3264charge 0 multiplicity 1
 C         0.225011        -0.639515        -0.578467
 C         1.072447         0.587942        -0.538075
 C         0.468496         1.706332        -1.427068
 C         1.321870         1.886478        -2.756106
 O         2.151251         2.966070        -2.959589
 C         2.755905         1.794962        -2.715328
 C         3.396394         1.483512        -1.353533
 C         2.578425         0.569835        -0.478174
 O         1.672519         1.050517         0.655278
 H        -0.019922        -0.850221        -1.655879
 H         0.740434        -1.550704        -0.051840
 H        -0.742671        -0.439717        -0.133506
 H        -0.551515         1.416137        -1.821507
 H         0.500241         2.713236        -0.819610
 H         0.747669         1.568488        -3.627989
 H         3.406411         1.459723        -3.548083
 H         4.245860         0.832494        -1.514659
 H         3.672143         2.425854        -0.844395
 H         3.031948        -0.376738        -0.342670
