19
Iteration:   149charge 0 multiplicity 1
 C        -0.018270        -0.386626        -0.122748
 C         1.109126         0.491260        -0.623186
 C         0.420626         1.525065        -1.502865
 C         1.194358         2.122032        -2.691133
 O         2.039266         3.193232        -2.249393
 C         2.786923         2.072056        -2.700804
 C         3.501233         0.971784        -1.871105
 C         2.601618         0.301468        -0.850975
 O         2.045903         1.070955         0.314391
 H         0.263949        -1.443266         0.174932
 H        -0.603267         0.148964         0.721452
 H        -0.636693        -0.702555        -1.120826
 H        -0.699428         1.307173        -1.602012
 H         0.366388         2.269818        -0.638837
 H         0.567838         2.246649        -3.625198
 H         3.253228         2.214091        -3.723356
 H         3.830622         0.098950        -2.516106
 H         4.268710         1.348670        -1.189065
 H         2.926468        -0.734656        -0.553799
