19
Iteration:  4954charge 0 multiplicity 1
 C         0.057848        -0.571616        -0.026659
 C         1.064729         0.523530        -0.619240
 C         0.434576         1.131363        -1.926449
 C         1.383848         2.001987        -2.671928
 O         2.178744         3.148629        -2.186566
 C         2.829796         2.028992        -2.699916
 C         3.504142         1.078797        -1.714540
 C         2.536219         0.586154        -0.581924
 O         1.687051         1.401202         0.201953
 H        -0.128266        -1.432449        -0.620167
 H         0.419069        -0.880357         1.015421
 H        -0.960135        -0.013986         0.049490
 H         0.101257         0.366979        -2.652731
 H        -0.508265         1.730120        -1.779090
 H         0.915329         2.298558        -3.680158
 H         3.279693         2.264454        -3.692033
 H         3.897589         0.167074        -2.193879
 H         4.326587         1.643323        -1.203691
 H         3.108705        -0.136705         0.015832
