19
Iteration:   302
 C         0.164204        -0.309387         0.180390
 C         1.013553         0.642147        -0.671342
 C         0.286220         1.348774        -1.888368
 C         1.254073         2.231646        -2.611948
 O         2.182385         3.143325        -1.950445
 C         2.698696         1.989477        -2.655213
 C         3.350570         0.988890        -1.872215
 C         2.499747         0.200178        -0.966136
 O         2.135330         1.107183         0.159610
 H         0.763931        -1.080311         0.450270
 H        -0.384885         0.031174         1.125317
 H        -0.606651        -0.703123        -0.471018
 H        -0.086154         0.587085        -2.610482
 H        -0.616995         2.011340        -1.660143
 H         0.755790         2.740879        -3.539959
 H         3.056052         2.358092        -3.679065
 H         3.977819         0.384946        -2.540669
 H         4.126080         1.560189        -1.303749
 H         2.776572        -0.855976        -0.677800
