19
Iteration:  4383
 C         0.174949        -0.514358         0.137235
 C         0.970175         0.493294        -0.678230
 C         0.462507         1.154492        -1.904272
 C         1.434089         2.009860        -2.835183
 O         2.115484         3.158931        -2.190552
 C         2.904874         2.103312        -2.592845
 C         3.494099         1.116072        -1.658996
 C         2.429753         0.425377        -0.703090
 O         1.649435         1.390353         0.148458
 H        -0.416790        -1.102313        -0.521868
 H         0.867159        -1.047260         0.671216
 H        -0.397110         0.057400         0.952861
 H         0.131485         0.433689        -2.629894
 H        -0.644396         1.613736        -1.691764
 H         1.115097         2.255163        -3.860831
 H         3.520709         2.161633        -3.542768
 H         4.056837         0.270856        -2.198811
 H         4.251533         1.669190        -0.955747
 H         2.861813        -0.401735        -0.113819
