19
Iteration:   217charge 0 multiplicity 1
 C         0.291486        -0.600620        -0.065281
 C         0.944024         0.646083        -0.649821
 C         0.283198         1.529785        -1.649351
 C         1.263870         2.297085        -2.521152
 O         2.374037         3.091066        -1.995826
 C         2.585628         1.914265        -2.830508
 C         3.325469         0.884991        -1.933703
 C         2.412627         0.384251        -0.818508
 O         2.035251         1.273275         0.179423
 H         0.779330        -0.815310         0.832543
 H        -0.823526        -0.581500         0.145819
 H         0.591843        -1.517560        -0.796137
 H        -0.396006         0.824860        -2.250583
 H        -0.395847         2.254507        -1.203428
 H         0.835593         2.744164        -3.360124
 H         2.985472         1.964566        -3.797410
 H         3.817413        -0.019542        -2.397285
 H         4.073508         1.423967        -1.389758
 H         2.755872        -0.623129        -0.481794
