19
Iteration:  3965charge 0 multiplicity 1
 C         0.197771        -0.401347         0.008932
 C         1.023406         0.626446        -0.726545
 C         0.381958         1.094488        -1.979719
 C         1.401074         2.046045        -2.719835
 O         2.008317         3.046558        -2.021182
 C         2.842239         1.964968        -2.555349
 C         3.520324         1.007330        -1.612466
 C         2.524329         0.445625        -0.701678
 O         1.748235         1.529456         0.037218
 H         0.366852        -1.398341        -0.473658
 H         0.583119        -0.594337         1.094561
 H        -0.800777        -0.010486         0.246620
 H         0.230648         0.237979        -2.637738
 H        -0.666621         1.444684        -1.817201
 H         1.055476         2.233515        -3.755383
 H         3.362082         2.267783        -3.456867
 H         4.090952         0.283580        -2.240623
 H         4.283203         1.522004        -1.035076
 H         2.728073        -0.446784        -0.127754
