19
Iteration:  4899
 C         0.147782        -0.293545         0.053108
 C         1.054671         0.541112        -0.773806
 C         0.430908         1.054422        -2.107145
 C         1.430096         1.992389        -2.803701
 O         1.859607         3.079961        -1.975896
 C         2.856658         2.098546        -2.443148
 C         3.502879         0.946946        -1.654231
 C         2.556151         0.443324        -0.657714
 O         1.833514         1.467017         0.054961
 H        -0.153572        -1.217071        -0.326638
 H         0.677965        -0.500234         1.004896
 H        -0.747871         0.101439         0.551748
 H         0.155708         0.204209        -2.736001
 H        -0.374654         1.583059        -1.803935
 H         1.116734         2.365788        -3.784793
 H         3.505295         2.559409        -3.225847
 H         3.648368         0.202314        -2.395237
 H         4.504611         1.105915        -1.260751
 H         2.858155        -0.400013        -0.035710
