19
Iteration:   800
 C         0.065956        -0.460209         0.018499
 C         1.117656         0.421068        -0.718832
 C         0.431869         1.426789        -1.612809
 C         1.211058         2.288219        -2.531790
 O         2.290774         3.164557        -2.000727
 C         2.644663         2.007189        -2.806916
 C         3.286721         0.995064        -1.967785
 C         2.563798         0.334967        -0.864406
 O         2.019248         1.153999         0.172200
 H        -0.614790         0.259814         0.501344
 H        -0.389210        -1.157359        -0.695653
 H         0.392016        -1.038406         0.879365
 H        -0.378980         0.858010        -2.211104
 H        -0.298411         2.104225        -1.065339
 H         0.600807         2.668259        -3.331095
 H         3.103903         2.367369        -3.777923
 H         3.494792         0.090247        -2.570396
 H         4.255530         1.307942        -1.612312
 H         3.066724        -0.568888        -0.435320
