19
Iteration:  3168charge 0 multiplicity 1
 C         0.096947        -0.631614        -0.434824
 C         1.038207         0.619982        -0.601602
 C         0.408350         1.620114        -1.558507
 C         1.288839         1.820686        -2.766586
 O         2.122186         3.074770        -2.904060
 C         2.760523         1.880504        -2.613791
 C         3.499922         1.456637        -1.294506
 C         2.586351         0.549349        -0.524893
 O         1.825686         1.042012         0.525130
 H        -0.135922        -0.992155        -1.429079
 H         0.600708        -1.425998         0.212827
 H        -0.880817        -0.459609         0.008176
 H        -0.641424         1.248328        -1.719979
 H         0.336706         2.533355        -1.027904
 H         0.848154         1.518930        -3.707368
 H         3.462433         1.400145        -3.347393
 H         4.342264         0.844777        -1.584950
 H         3.858896         2.408441        -0.729976
 H         2.930879        -0.587626        -0.470165
