19
Iteration:  3352
 C         0.169540        -0.533329        -0.352166
 C         1.119038         0.555364        -0.549524
 C         0.429861         1.648063        -1.589148
 C         1.264749         1.904759        -2.873934
 O         2.246064         3.095359        -2.914296
 C         2.777374         1.810662        -2.695024
 C         3.274383         1.544845        -1.290403
 C         2.543362         0.420210        -0.579199
 O         1.813000         0.920181         0.630632
 H        -0.047645        -1.010580        -1.383734
 H         0.622809        -1.310718         0.454417
 H        -0.795840        -0.207199         0.052176
 H        -0.561885         1.286678        -2.019034
 H         0.160930         2.567072        -0.949168
 H         0.965174         1.613592        -3.907004
 H         3.313607         1.294803        -3.520702
 H         4.367861         1.495225        -1.354854
 H         3.134294         2.457910        -0.647975
 H         2.999097        -0.507209        -0.427142
