19
Iteration:  2261charge 0 multiplicity 1
 C         0.140726        -0.519445        -0.029323
 C         1.004990         0.571580        -0.716738
 C         0.388293         1.239193        -1.920918
 C         1.384179         1.993925        -2.761756
 O         2.070615         3.123591        -2.291777
 C         2.889460         1.946694        -2.601586
 C         3.488000         1.142746        -1.553870
 C         2.488154         0.479880        -0.594738
 O         1.809258         1.347024         0.219108
 H        -0.539662        -1.290683        -0.573467
 H         0.770591        -0.919287         0.670395
 H        -0.589213         0.203047         0.470164
 H        -0.169649         0.492333        -2.554710
 H        -0.418451         1.868069        -1.654731
 H         1.157499         2.012787        -3.881881
 H         3.436858         2.116615        -3.563246
 H         4.190587         0.379363        -1.888749
 H         4.037471         1.900644        -0.982954
 H         2.678058        -0.396510        -0.119628
