19
Iteration:  2052charge 0 multiplicity 1
 C         0.111329        -0.378046         0.171326
 C         0.995098         0.388474        -0.760519
 C         0.434746         1.050615        -2.039766
 C         1.375598         2.023256        -2.821479
 O         2.063771         3.089745        -2.062163
 C         2.861906         1.984614        -2.657095
 C         3.529827         1.151371        -1.541571
 C         2.474004         0.478337        -0.671681
 O         1.790042         1.452692         0.053809
 H        -0.377192        -1.250868        -0.350559
 H         0.656673        -0.840520         0.859109
 H        -0.676942         0.336492         0.541852
 H        -0.099479         0.287358        -2.704004
 H        -0.361910         1.680867        -1.567513
 H         0.793713         2.424269        -3.786656
 H         3.669609         2.388022        -3.432753
 H         4.257837         0.520030        -2.069857
 H         4.115099         1.792157        -0.867840
 H         3.005755        -0.253127        -0.031087
