19
Iteration:  2175
 C         0.344573        -0.699732        -0.017134
 C         0.930980         0.512153        -0.632387
 C         0.373004         1.353402        -1.803400
 C         1.417177         2.092131        -2.760043
 O         2.268576         3.220952        -2.474878
 C         2.818811         1.891431        -2.731796
 C         3.369713         1.112736        -1.525418
 C         2.363714         0.454659        -0.628632
 O         1.688671         1.405168         0.348522
 H         0.511124        -1.465531        -0.782886
 H         0.762034        -0.961650         0.856490
 H        -0.764287        -0.613404         0.089661
 H        -0.092568         0.697702        -2.551511
 H        -0.454345         2.044002        -1.404891
 H         0.961962         2.238445        -3.726442
 H         3.437495         1.845720        -3.666274
 H         4.055613         0.348921        -1.912980
 H         4.023902         1.810226        -0.974391
 H         2.861000        -0.404448        -0.108082
