19
Iteration:  3766charge 0 multiplicity 1
 C         0.303609        -0.576460        -0.315418
 C         1.029845         0.648837        -0.639299
 C         0.383790         1.546342        -1.623922
 C         1.291771         1.855250        -2.826914
 O         2.162789         3.026482        -2.432396
 C         2.826426         1.734735        -2.764991
 C         3.476090         1.312583        -1.512581
 C         2.479508         0.520559        -0.574758
 O         1.673438         1.260691         0.439094
 H         0.015856        -1.116603        -1.291623
 H         0.927398        -1.238404         0.199373
 H        -0.618849        -0.483935         0.218438
 H        -0.672099         1.196329        -2.049694
 H         0.347713         2.542873        -1.090615
 H         0.774352         1.893103        -3.864614
 H         3.396218         1.724481        -3.718754
 H         4.454801         0.833892        -1.650865
 H         3.658581         2.155246        -0.883377
 H         2.876672        -0.460327        -0.266079
