19
Iteration:  4145
 C         0.134067        -0.553190        -0.238146
 C         1.110040         0.566595        -0.713026
 C         0.368355         1.526791        -1.696791
 C         1.308700         1.935232        -2.805792
 O         2.118185         3.063051        -2.595396
 C         2.803631         1.779096        -2.696020
 C         3.456488         1.444203        -1.370153
 C         2.607077         0.518462        -0.579989
 O         1.799335         1.086928         0.452280
 H         0.013434        -1.371541        -0.961959
 H         0.373921        -1.006600         0.679389
 H        -0.949430        -0.118941        -0.141466
 H        -0.593211         0.941553        -2.142000
 H         0.005498         2.393870        -1.299884
 H         0.800883         1.893381        -3.780536
 H         3.254397         1.433796        -3.684009
 H         4.406127         1.042814        -1.579628
 H         3.512791         2.447590        -0.794215
 H         3.077814        -0.520922        -0.197766
