19
Iteration:     6
 C         0.190726        -0.431039        -0.036019
 C         1.055118         0.567959        -0.668961
 C         0.316817         1.505833        -1.675185
 C         1.257600         2.246097        -2.629608
 O         2.208457         3.094708        -2.032939
 C         2.684773         1.991085        -2.708741
 C         3.332121         0.855017        -1.947145
 C         2.488940         0.312847        -0.809991
 O         2.066987         1.198798         0.219237
 H         0.840049        -1.052691         0.673691
 H        -0.750463        -0.081948         0.456297
 H        -0.191874        -1.083359        -0.851442
 H        -0.408229         0.962745        -2.318094
 H        -0.388435         2.194820        -1.111088
 H         0.603447         2.646990        -3.430546
 H         3.169869         2.404539        -3.616864
 H         3.704044         0.076140        -2.637729
 H         4.210848         1.385721        -1.485499
 H         2.939873        -0.577751        -0.332457
