19
Iteration:   406
 C         0.239721        -0.599914        -0.187527
 C         1.062498         0.575943        -0.702501
 C         0.298657         1.601365        -1.529289
 C         1.194224         2.380916        -2.558375
 O         2.332560         3.069485        -2.204870
 C         2.586963         1.889705        -2.827575
 C         3.353510         0.938320        -1.887023
 C         2.524798         0.394639        -0.724290
 O         1.970934         1.158118         0.344818
 H         0.523296        -0.748137         0.955192
 H        -0.821683        -0.439626        -0.198775
 H         0.619126        -1.612680        -0.586137
 H        -0.518706         1.092209        -2.197800
 H        -0.181574         2.367416        -0.886548
 H         0.584054         2.699224        -3.379729
 H         2.890071         1.947353        -3.834947
 H         3.720509         0.043828        -2.448378
 H         4.232286         1.512399        -1.614282
 H         3.019676        -0.527595        -0.430463
