19
Iteration:  1844charge 0 multiplicity 1
 C         0.247078        -0.567909        -0.005619
 C         1.039699         0.563372        -0.756094
 C         0.275080         1.290612        -1.847593
 C         1.351268         1.942887        -2.791075
 O         2.164982         3.033445        -2.276987
 C         2.841027         1.877050        -2.697217
 C         3.532552         1.204911        -1.510631
 C         2.539503         0.535981        -0.601690
 O         1.645473         1.411151         0.199546
 H        -0.544157        -1.068033        -0.670945
 H         0.875744        -1.355383         0.243517
 H        -0.297526        -0.106351         0.872929
 H        -0.353822         0.639543        -2.397288
 H        -0.397033         2.084040        -1.379119
 H         0.961114         2.167006        -3.824478
 H         3.457490         2.101674        -3.662017
 H         4.456795         0.623359        -1.762819
 H         3.949463         2.108351        -1.020067
 H         3.042614        -0.323407        -0.033488
