19
Iteration:  1342charge 0 multiplicity 1
 C         0.046820        -0.519136        -0.123788
 C         1.096879         0.570030        -0.592469
 C         0.426889         1.436865        -1.608004
 C         1.272576         2.142838        -2.722135
 O         2.175137         3.207806        -2.310110
 C         2.674535         1.873307        -2.763455
 C         3.399367         1.053147        -1.762470
 C         2.619705         0.406261        -0.629616
 O         1.923039         1.197473         0.327308
 H        -0.577843        -0.262007         0.636615
 H        -0.567899        -0.582074        -0.924194
 H         0.446840        -1.579056        -0.133653
 H        -0.192110         0.705078        -2.201614
 H        -0.288179         2.108225        -1.058160
 H         0.659251         2.396417        -3.675034
 H         3.270592         1.875267        -3.767193
 H         4.009840         0.243975        -2.324844
 H         4.245200         1.751932        -1.487890
 H         3.026820        -0.550008        -0.295176
