19
Iteration:  2213charge 0 multiplicity 1
 C         0.078835        -0.456658        -0.139477
 C         1.143669         0.446390        -0.715054
 C         0.424585         1.349393        -1.873604
 C         1.357124         1.943892        -2.842461
 O         2.002397         3.198135        -2.370426
 C         2.840410         1.846014        -2.680169
 C         3.465658         1.182951        -1.558984
 C         2.577380         0.482987        -0.537915
 O         1.792374         1.309809         0.436809
 H        -0.185932        -1.207846        -0.898504
 H         0.567060        -1.110701         0.711490
 H        -0.856400         0.078080        -0.031721
 H        -0.399114         0.835915        -2.386577
 H        -0.112416         2.168507        -1.432261
 H         0.953590         1.974239        -3.902276
 H         3.442887         1.918251        -3.563563
 H         4.090055         0.333453        -1.932401
 H         4.115474         1.801152        -0.924994
 H         3.052146        -0.306955         0.085457
