19
Iteration:  4917
 C         0.232033        -0.336963         0.065293
 C         1.059432         0.584399        -0.787505
 C         0.524507         1.123781        -2.151061
 C         1.331615         2.095466        -2.881031
 O         1.937271         3.028147        -1.939405
 C         2.752501         2.021782        -2.554476
 C         3.409433         0.946490        -1.650657
 C         2.527800         0.371191        -0.508278
 O         1.854018         1.483496         0.109072
 H         0.073344        -1.337716        -0.500361
 H         0.659221        -0.629021         1.042786
 H        -0.776204         0.199166         0.188508
 H         0.374555         0.202387        -2.733652
 H        -0.627949         1.613750        -2.012966
 H         1.057981         2.512267        -3.966896
 H         3.494724         2.496368        -3.253326
 H         3.940097         0.095235        -2.295367
 H         4.258525         1.531497        -1.164381
 H         2.868180        -0.391744         0.211353
