19
Iteration:    72
 C         0.111780        -0.695795        -0.064450
 C         1.039347         0.418356        -0.622630
 C         0.473358         1.581756        -1.479519
 C         1.242794         2.338389        -2.564090
 O         2.353018         3.258090        -2.356844
 C         2.590228         1.928777        -2.829094
 C         3.368090         1.019817        -1.852171
 C         2.501447         0.387330        -0.758924
 O         1.928809         1.131183         0.273476
 H         0.629256        -1.209919         0.812552
 H        -0.903649        -0.280701         0.223974
 H        -0.244130        -1.381143        -0.904615
 H        -0.484768         1.254564        -1.985380
 H         0.067794         2.326339        -0.709889
 H         0.482997         2.673171        -3.317647
 H         3.084460         1.791967        -3.814703
 H         3.631236         0.096983        -2.434140
 H         4.322096         1.444484        -1.448151
 H         3.031191        -0.536456        -0.426919
