19
Iteration:  2343
 C         0.198603        -0.494107        -0.175170
 C         1.119498         0.628934        -0.711973
 C         0.409156         1.264766        -1.940532
 C         1.269234         2.008113        -2.865504
 O         2.060497         2.986165        -2.033968
 C         2.732217         1.887470        -2.635959
 C         3.538066         0.921662        -1.645838
 C         2.564826         0.560293        -0.516136
 O         1.759104         1.578288         0.169669
 H         0.488905        -1.355041        -0.713300
 H         0.389458        -0.769942         0.941873
 H        -0.855881        -0.371685        -0.141361
 H         0.093475         0.396927        -2.462756
 H        -0.533303         1.807455        -1.419913
 H         0.835053         2.485231        -3.724794
 H         3.236034         2.042350        -3.594095
 H         4.197219         0.050645        -1.783467
 H         4.216347         1.686879        -1.159853
 H         2.873939        -0.173152         0.391333
