19
Iteration:  3188charge 0 multiplicity 1
 C         0.081437        -0.686075        -0.367226
 C         1.063829         0.480138        -0.597171
 C         0.546136         1.674136        -1.460693
 C         1.383573         1.914097        -2.775007
 O         2.090517         3.095462        -2.920885
 C         2.847819         1.842969        -2.766951
 C         3.421014         1.525189        -1.390537
 C         2.519727         0.493056        -0.534345
 O         1.711571         1.011622         0.572502
 H         0.004276        -1.295520        -1.264256
 H         0.320710        -1.230240         0.602564
 H        -0.854251        -0.312418        -0.219003
 H        -0.531251         1.495085        -1.773591
 H         0.497721         2.663268        -0.860081
 H         0.892561         1.573033        -3.686861
 H         3.410978         1.476156        -3.629538
 H         4.399991         1.122157        -1.401482
 H         3.567081         2.370666        -0.673155
 H         3.130878        -0.359941        -0.216807
