19
Iteration:  2267
 C         0.185064        -0.496132         0.020664
 C         0.987052         0.510839        -0.760167
 C         0.432884         1.254584        -1.929412
 C         1.381212         2.019336        -2.806549
 O         2.110090         3.161386        -2.296043
 C         2.861144         1.971514        -2.634297
 C         3.452276         1.120477        -1.543834
 C         2.445964         0.484004        -0.563550
 O         1.763983         1.343556         0.214270
 H        -0.270141        -1.325318        -0.494477
 H         0.830544        -1.026351         0.838191
 H        -0.517725         0.068569         0.615365
 H         0.096421         0.434949        -2.593237
 H        -0.475431         1.919060        -1.668209
 H         0.904008         2.104633        -3.799400
 H         3.564410         2.086242        -3.454454
 H         4.080426         0.287695        -1.939866
 H         4.178523         1.715270        -0.930836
 H         2.710394        -0.562978        -0.051978
