19
Iteration:  2860charge 0 multiplicity 1
 C         0.199569        -0.540964        -0.123141
 C         1.094748         0.524430        -0.729196
 C         0.355065         1.331760        -1.819585
 C         1.327412         1.957672        -2.786331
 O         2.074096         3.140303        -2.343067
 C         2.753897         1.880585        -2.634025
 C         3.491959         1.201279        -1.478094
 C         2.564405         0.468285        -0.604715
 O         1.797107         1.366231         0.259155
 H        -0.030939        -1.316139        -0.966589
 H         0.665132        -1.005735         0.749601
 H        -0.764628        -0.160059         0.236157
 H        -0.376300         0.588929        -2.415191
 H        -0.335138         2.147942        -1.365639
 H         0.907115         2.122781        -3.738996
 H         3.331617         1.880037        -3.530429
 H         4.081707         0.405973        -1.918408
 H         4.157275         1.956297        -0.864064
 H         3.017101        -0.448116        -0.132560
