19
Iteration:  3008
 C         0.230061        -0.622734        -0.060577
 C         1.059128         0.484567        -0.683159
 C         0.408474         1.238278        -1.897859
 C         1.338736         2.127645        -2.802308
 O         2.109973         3.230230        -2.444841
 C         2.838765         1.958787        -2.638406
 C         3.407173         1.088183        -1.490811
 C         2.558850         0.453798        -0.445713
 O         1.728470         1.393363         0.232724
 H        -0.099374        -1.335769        -0.823265
 H         0.718845        -1.081595         0.769891
 H        -0.752558        -0.197741         0.397749
 H        -0.226114         0.567676        -2.540971
 H        -0.287278         1.998729        -1.241031
 H         0.778510         2.261001        -3.804112
 H         3.488460         1.846224        -3.587432
 H         3.908214         0.158261        -2.000738
 H         4.123081         1.690367        -0.948821
 H         2.876145        -0.467044         0.005726
