19
Iteration:   168
 C         0.053331        -0.533138        -0.090484
 C         1.076606         0.460129        -0.694063
 C         0.454958         1.577084        -1.515078
 C         1.278197         2.173402        -2.622218
 O         2.171414         3.271464        -2.245629
 C         2.679890         2.003311        -2.769961
 C         3.352251         0.992040        -1.886751
 C         2.585444         0.297302        -0.729542
 O         1.982974         1.094742         0.279665
 H         0.437198        -1.357848         0.668312
 H        -0.616386         0.143941         0.448676
 H        -0.534909        -1.041589        -0.819055
 H        -0.421774         1.148405        -1.979504
 H         0.048151         2.375764        -0.793600
 H         0.636944         2.484701        -3.537993
 H         3.281267         2.014034        -3.715581
 H         3.469451         0.151294        -2.546371
 H         4.395604         1.325261        -1.588751
 H         3.113123        -0.597225        -0.369524
