19
Iteration:  4853charge 0 multiplicity 1
 C         0.110682        -0.464059        -0.001003
 C         1.079985         0.485094        -0.727307
 C         0.440661         1.150566        -2.040754
 C         1.304826         2.141370        -2.802832
 O         2.111821         3.126117        -2.167559
 C         2.771685         1.935379        -2.663425
 C         3.468305         1.114471        -1.604813
 C         2.564003         0.505747        -0.538335
 O         1.800081         1.331725         0.250249
 H        -0.509583        -1.000066        -0.704219
 H         0.412799        -0.981222         0.914866
 H        -0.612484         0.124506         0.631805
 H         0.277363         0.317611        -2.723108
 H        -0.457352         1.564397        -1.756365
 H         0.726027         2.310268        -3.818526
 H         3.434898         2.227147        -3.556366
 H         4.128934         0.391422        -2.057654
 H         4.215483         1.788083        -1.130549
 H         2.949781        -0.339757         0.033006
