19
Iteration:  3874
 C         0.225996        -0.544617        -0.100196
 C         1.000104         0.629428        -0.686216
 C         0.446825         1.329039        -1.891271
 C         1.316995         1.994953        -2.849062
 O         2.022518         3.079022        -2.273513
 C         2.810914         1.906969        -2.611261
 C         3.497352         1.094109        -1.522954
 C         2.529199         0.415374        -0.558875
 O         1.800709         1.439973         0.206524
 H        -0.039247        -1.341645        -0.951511
 H         0.817681        -1.047453         0.641842
 H        -0.650836        -0.235313         0.514492
 H        -0.161826         0.629568        -2.369746
 H        -0.346736         2.112140        -1.479257
 H         0.853626         2.281664        -3.831407
 H         3.447039         1.929373        -3.491193
 H         4.319257         0.394367        -1.838805
 H         3.949798         1.715564        -0.752609
 H         2.745134        -0.490468        -0.123319
