19
Iteration:   443charge 0 multiplicity 1
 C         0.093599        -0.598778        -0.059090
 C         1.017315         0.459756        -0.648667
 C         0.387042         1.610073        -1.496642
 C         1.206059         2.202456        -2.606565
 O         2.191442         3.230527        -2.245873
 C         2.714759         2.018368        -2.713265
 C         3.390368         0.983100        -1.889490
 C         2.481797         0.266121        -0.853456
 O         2.090800         1.162662         0.228690
 H        -0.085169        -0.214674         1.035532
 H        -0.937248        -0.694813        -0.617872
 H         0.489467        -1.584602        -0.110804
 H        -0.552526         1.301277        -1.843156
 H         0.141445         2.361696        -0.748620
 H         0.818975         2.433022        -3.643011
 H         3.177023         2.118013        -3.792439
 H         3.816835         0.232998        -2.558683
 H         4.247680         1.294186        -1.192965
 H         2.923637        -0.682717        -0.435971
