19
Iteration:  3379charge 0 multiplicity 1
 C         0.101427        -0.604235        -0.320857
 C         1.085097         0.466657        -0.665228
 C         0.599737         1.700033        -1.527388
 C         1.359803         1.913633        -2.865758
 O         2.064709         3.056547        -2.798583
 C         2.828665         1.783561        -2.710992
 C         3.313625         1.494797        -1.329979
 C         2.498289         0.462683        -0.545032
 O         1.807812         1.036398         0.506465
 H         0.014053        -1.263793        -1.121378
 H         0.470187        -1.034229         0.507306
 H        -0.905336        -0.205619        -0.140300
 H        -0.490046         1.585647        -1.876870
 H         0.740527         2.502848        -0.822870
 H         0.804898         1.744234        -3.820908
 H         3.439437         1.489424        -3.556187
 H         4.421147         1.362410        -1.327946
 H         3.067194         2.380572        -0.754929
 H         3.074851        -0.520443        -0.227740
