19
Iteration:  2870charge 0 multiplicity 1
 C         0.207551        -0.514995        -0.043049
 C         1.025346         0.533307        -0.722163
 C         0.398454         1.266737        -1.887429
 C         1.326780         1.987480        -2.863087
 O         2.036702         3.131211        -2.310064
 C         2.812587         1.960901        -2.628494
 C         3.506901         1.196503        -1.526384
 C         2.494700         0.435825        -0.632935
 O         1.825018         1.339761         0.338991
 H        -0.051973        -1.461421        -0.713891
 H         0.668507        -0.855310         0.854453
 H        -0.762727        -0.015922         0.181928
 H        -0.341816         0.578710        -2.530227
 H        -0.235835         2.017199        -1.330869
 H         1.072726         2.035815        -3.936877
 H         3.394526         2.068385        -3.565309
 H         4.158127         0.529424        -2.069698
 H         4.285498         1.855403        -0.909223
 H         2.792028        -0.524840        -0.186862
