19
Iteration:  3583charge 0 multiplicity 1
 C         0.269375        -0.418213         0.065227
 C         1.065023         0.558144        -0.719579
 C         0.468630         1.072844        -2.071687
 C         1.382633         2.148792        -2.791401
 O         2.040146         3.072754        -1.960243
 C         2.840744         1.964398        -2.602202
 C         3.421061         0.908095        -1.676851
 C         2.516634         0.535362        -0.570179
 O         1.669208         1.538199         0.060784
 H        -0.102563        -1.163057        -0.730416
 H         0.842059        -0.949932         0.779549
 H        -0.659735        -0.012114         0.514908
 H         0.308264         0.181080        -2.626545
 H        -0.663538         1.322601        -1.879259
 H         0.934205         2.466368        -3.716862
 H         3.439578         2.159572        -3.481111
 H         3.641097        -0.040902        -2.193260
 H         4.419229         1.341141        -1.353112
 H         2.953763        -0.151352         0.095052
