19
Iteration:    87charge 0 multiplicity 1
 C         0.130028        -0.663194         0.035075
 C         0.989646         0.489429        -0.655353
 C         0.412863         1.614461        -1.491921
 C         1.287944         2.350355        -2.527808
 O         2.377448         3.272852        -2.413490
 C         2.661135         1.919590        -2.845209
 C         3.287149         1.101594        -1.823512
 C         2.488463         0.313836        -0.822905
 O         1.919986         0.995453         0.307267
 H         0.765322        -1.186959         0.614657
 H        -0.640749        -0.330520         0.693219
 H        -0.182889        -1.446113        -0.745569
 H        -0.204817         1.092837        -2.264542
 H        -0.165863         2.261565        -0.919439
 H         0.792786         2.588113        -3.419791
 H         2.883837         1.835869        -3.926939
 H         4.030592         0.397062        -2.345158
 H         3.929706         1.777806        -1.274220
 H         2.992772        -0.647128        -0.521964
