19
Iteration:  2854
 C         0.192599        -0.569218        -0.182204
 C         1.113398         0.559707        -0.717056
 C         0.349191         1.366530        -1.764900
 C         1.273693         1.959736        -2.722216
 O         2.098971         3.127056        -2.375330
 C         2.783855         1.852315        -2.625912
 C         3.458316         1.177888        -1.503481
 C         2.588858         0.506319        -0.530335
 O         1.767673         1.347529         0.192387
 H         0.058783        -1.262482        -0.948078
 H         0.706361        -1.235392         0.593929
 H        -0.723662        -0.132472         0.239301
 H        -0.237929         0.693035        -2.254532
 H        -0.311600         2.147458        -1.427528
 H         0.787667         2.146851        -3.746471
 H         3.368927         1.867671        -3.591618
 H         4.285008         0.468266        -1.824513
 H         3.971277         1.895801        -0.957382
 H         3.143951        -0.269921         0.005739
