19
Iteration:  2863charge 0 multiplicity 1
 C         0.201341        -0.534596        -0.109250
 C         1.069707         0.513688        -0.728884
 C         0.355460         1.305169        -1.846563
 C         1.342462         1.965440        -2.815477
 O         2.063729         3.140324        -2.329609
 C         2.751342         1.899664        -2.638471
 C         3.511276         1.218210        -1.470646
 C         2.549629         0.452040        -0.629195
 O         1.809076         1.370457         0.291833
 H        -0.056004        -1.254601        -0.844456
 H         0.691476        -0.954721         0.857604
 H        -0.760444        -0.158396         0.198163
 H        -0.314940         0.658550        -2.408184
 H        -0.303136         2.097092        -1.327848
 H         0.974221         2.092252        -3.796457
 H         3.327005         1.909083        -3.525336
 H         4.060416         0.389848        -1.995814
 H         4.155800         1.877791        -0.920529
 H         2.922705        -0.511510        -0.160115
