19
Iteration:     1
 C         0.172585        -0.452898         0.000851
 C         1.062391         0.560125        -0.685660
 C         0.351052         1.477029        -1.668696
 C         1.243747         2.265402        -2.602765
 O         2.219053         3.134277        -2.023172
 C         2.679631         1.983009        -2.734342
 C         3.350416         0.889398        -1.933181
 C         2.506819         0.302910        -0.821814
 O         2.014329         1.197424         0.180274
 H         0.743625        -1.026919         0.734592
 H        -0.647525         0.049919         0.525828
 H        -0.268444        -1.146792        -0.722963
 H        -0.323232         0.867853        -2.285090
 H        -0.289546         2.170071        -1.106993
 H         0.724007         2.699448        -3.458851
 H         3.167435         2.216698        -3.682248
 H         3.624804         0.078250        -2.620941
 H         4.290853         1.268958        -1.512604
 H         2.891671        -0.636572        -0.419015
