19
Iteration:   113
 C         0.194757        -0.447018        -0.047074
 C         1.078926         0.623382        -0.684442
 C         0.317566         1.580324        -1.575261
 C         1.166833         2.262869        -2.701959
 O         2.242010         3.209734        -2.320325
 C         2.647235         1.935025        -2.753337
 C         3.385083         1.048130        -1.687544
 C         2.453479         0.233551        -0.885629
 O         2.070487         0.920983         0.352925
 H         0.890139        -1.345465         0.378403
 H        -0.464795        -0.118342         0.776552
 H        -0.463385        -0.797391        -0.776744
 H        -0.474946         1.045046        -2.037277
 H        -0.101663         2.413785        -0.910168
 H         0.672306         2.696728        -3.644535
 H         3.193302         1.890978        -3.720464
 H         4.161824         0.480066        -2.112056
 H         3.944579         1.748941        -1.014145
 H         2.763278        -0.800902        -0.826676
