19
Iteration:   755charge 0 multiplicity 1
 C         0.389568        -0.632402        -0.279305
 C         1.005501         0.685931        -0.607319
 C         0.336387         1.695825        -1.485029
 C         1.210141         2.333348        -2.594519
 O         2.259717         3.175285        -2.146294
 C         2.657701         1.847110        -2.742905
 C         3.228957         0.801957        -1.912563
 C         2.444913         0.371302        -0.761246
 O         2.031214         1.146205         0.305146
 H        -0.603012        -0.562969         0.042235
 H         0.643799        -1.314198        -1.026357
 H         0.909237        -1.086692         0.664587
 H        -0.552967         1.240596        -2.001621
 H        -0.236465         2.507408        -0.994763
 H         0.585638         2.765384        -3.388495
 H         3.074866         1.934605        -3.839666
 H         3.251738        -0.068348        -2.593077
 H         4.258007         1.061798        -1.681896
 H         2.783122        -0.705201        -0.504393
