19
Iteration:   370charge 0 multiplicity 1
 C         0.191000        -0.558867        -0.132232
 C         1.041748         0.637551        -0.572857
 C         0.403751         1.501856        -1.626953
 C         1.207944         2.275169        -2.566811
 O         2.200580         3.157692        -2.174470
 C         2.726226         1.989225        -2.782612
 C         3.268202         0.868345        -1.929180
 C         2.513017         0.340625        -0.756492
 O         2.063188         1.215769         0.318770
 H         0.816168        -1.185287         0.375070
 H        -0.699270        -0.424020         0.441495
 H        -0.214305        -0.979372        -1.125045
 H        -0.230898         0.808406        -2.298300
 H        -0.386490         2.089058        -1.072805
 H         0.698077         2.635764        -3.423659
 H         3.238202         2.154554        -3.698398
 H         3.387809        -0.008883        -2.612665
 H         4.246307         1.053959        -1.532462
 H         2.751491        -0.610864        -0.333369
