19
Iteration:  1615charge 0 multiplicity 1
 C         0.260812        -0.619965        -0.093730
 C         1.038230         0.549479        -0.695906
 C         0.300555         1.447107        -1.691353
 C         1.298465         1.963156        -2.741018
 O         2.163143         3.038613        -2.276290
 C         2.873622         1.914195        -2.687838
 C         3.467901         1.157352        -1.625325
 C         2.500449         0.427700        -0.704071
 O         1.716942         1.430826         0.210417
 H        -0.635979        -0.318760         0.607951
 H        -0.049717        -1.325473        -0.915705
 H         1.022154        -1.168913         0.712753
 H        -0.594964         0.954452        -2.226231
 H        -0.128721         2.174580        -1.048551
 H         0.834874         2.286620        -3.674165
 H         3.435864         1.978041        -3.572212
 H         4.074212         0.490844        -2.221101
 H         4.124750         1.843043        -1.095089
 H         2.989778        -0.344101        -0.035648
