19
Iteration:  1850charge 0 multiplicity 1
 C         0.194582        -0.590027        -0.034236
 C         1.046740         0.535947        -0.756818
 C         0.343531         1.292302        -1.857826
 C         1.328831         1.987778        -2.833316
 O         2.181431         3.066683        -2.330816
 C         2.811588         1.903182        -2.685851
 C         3.527674         1.245481        -1.505383
 C         2.534359         0.505381        -0.537930
 O         1.671264         1.382384         0.221995
 H        -0.671276        -1.081895        -0.442163
 H         0.934582        -1.374386         0.477413
 H        -0.229938        -0.178296         0.866106
 H        -0.495556         0.537172        -2.205035
 H        -0.263927         2.037263        -1.392267
 H         1.098952         2.076035        -3.941222
 H         3.353223         2.020283        -3.606731
 H         4.292586         0.569075        -1.869346
 H         3.989394         2.104883        -1.001748
 H         2.935706        -0.305236        -0.003523
