19
Iteration:  3634charge 0 multiplicity 1
 C         0.152414        -0.539334         0.012500
 C         1.058561         0.506570        -0.683446
 C         0.498323         1.198618        -1.986080
 C         1.316435         2.134100        -2.829506
 O         2.128119         3.121885        -2.150461
 C         2.819993         1.982265        -2.633650
 C         3.453169         0.977289        -1.655816
 C         2.549490         0.502579        -0.497508
 O         1.676735         1.488079         0.168580
 H        -0.042300        -1.427867        -0.566968
 H         0.645567        -0.770921         0.971725
 H        -0.795001        -0.129255         0.228503
 H         0.161125         0.349277        -2.652882
 H        -0.424537         1.514637        -1.729734
 H         0.657036         2.277061        -3.737322
 H         3.536151         2.171380        -3.478361
 H         3.804467         0.148712        -2.309362
 H         4.370820         1.455821        -1.304310
 H         3.061981        -0.332313         0.185798
