19
Iteration:  1621
 C         0.265078        -0.632380        -0.107599
 C         1.044910         0.559243        -0.725717
 C         0.322030         1.428993        -1.695231
 C         1.297860         2.008438        -2.753839
 O         2.185431         2.990278        -2.263127
 C         2.799946         1.917418        -2.697912
 C         3.444514         1.137563        -1.620918
 C         2.527949         0.472099        -0.666383
 O         1.715477         1.444154         0.226904
 H        -0.368081        -0.384578         0.670037
 H        -0.228802        -1.221153        -0.967681
 H         0.964742        -1.171628         0.412425
 H        -0.413288         0.854595        -2.184207
 H        -0.178012         2.242324        -0.978303
 H         0.844108         2.338890        -3.709225
 H         3.382036         1.893324        -3.730284
 H         4.152119         0.345587        -2.028672
 H         4.063820         1.874434        -1.037357
 H         2.972888        -0.269586        -0.047470
