19
Iteration:   418charge 0 multiplicity 1
 C         0.188752        -0.625258        -0.122868
 C         1.024473         0.487975        -0.661585
 C         0.380880         1.640447        -1.460353
 C         1.209504         2.253179        -2.516693
 O         2.296613         3.174431        -2.187248
 C         2.631436         1.852359        -2.886186
 C         3.399377         1.015189        -1.903065
 C         2.552163         0.353425        -0.767499
 O         1.920265         1.191766         0.213001
 H         0.222536        -0.551521         1.094171
 H        -0.871605        -0.544861        -0.483168
 H         0.466686        -1.606871        -0.580874
 H        -0.599824         1.241822        -1.938592
 H         0.039330         2.323565        -0.668253
 H         0.712553         2.764783        -3.347456
 H         3.006210         1.944644        -3.908683
 H         3.702453         0.108159        -2.473041
 H         4.314274         1.413380        -1.422314
 H         2.945348        -0.531867        -0.252736
