19
Iteration:  2303
 C         0.256546        -0.624504         0.071154
 C         1.003515         0.459621        -0.726359
 C         0.456049         1.219523        -1.935221
 C         1.399534         2.087308        -2.784812
 O         2.210083         3.192200        -2.196523
 C         2.841599         1.958802        -2.714230
 C         3.411389         0.933888        -1.701359
 C         2.457466         0.615773        -0.470539
 O         1.604769         1.505765         0.234672
 H         0.072388        -1.588895        -0.557371
 H         0.768262        -0.813062         0.975299
 H        -0.812840        -0.286041         0.239504
 H         0.279943         0.381997        -2.718305
 H        -0.475172         1.673409        -1.823397
 H         0.877436         2.414561        -3.777889
 H         3.520831         2.246111        -3.544599
 H         3.557102         0.031143        -2.337891
 H         4.375201         1.302221        -1.385464
 H         2.919028        -0.171051         0.074569
