19
Iteration:   868charge 0 multiplicity 1
 C         0.158945        -0.331021         0.171785
 C         1.093413         0.550144        -0.683231
 C         0.378270         1.413738        -1.795301
 C         1.268082         2.246164        -2.689643
 O         1.983881         3.193077        -1.874730
 C         2.786064         2.176868        -2.628340
 C         3.368917         0.786883        -2.017801
 C         2.567275         0.208700        -0.877960
 O         2.060828         1.126259         0.088799
 H        -0.072221         0.179309         1.203040
 H        -0.800830        -0.637822        -0.422435
 H         0.607982        -1.184183         0.542284
 H        -0.271196         0.702180        -2.512310
 H        -0.459030         2.044008        -1.239057
 H         0.883832         2.665536        -3.588056
 H         3.407300         2.640149        -3.385157
 H         3.282411        -0.012019        -2.797318
 H         4.424549         0.794084        -1.802957
 H         2.875151        -0.769866        -0.558245
