19
Iteration:  4409charge 0 multiplicity 1
 C         0.207558        -0.604807         0.001448
 C         1.018352         0.485615        -0.709921
 C         0.415043         1.290036        -1.917969
 C         1.393584         2.090913        -2.834281
 O         2.123025         3.210481        -2.378313
 C         2.844821         1.976499        -2.669579
 C         3.432372         1.119841        -1.532751
 C         2.460382         0.476980        -0.507222
 O         1.716502         1.312856         0.283510
 H        -0.323787        -1.168571        -0.795425
 H         0.997285        -1.257172         0.552539
 H        -0.363588        -0.154642         0.770935
 H        -0.180403         0.763439        -2.656887
 H        -0.422986         1.919529        -1.492240
 H         1.100695         2.177893        -3.869058
 H         3.447766         1.906416        -3.561147
 H         3.897687         0.175137        -1.925000
 H         4.194865         1.679722        -0.990349
 H         2.986264        -0.279935         0.136040
