19
Iteration:  3229
 C         0.201671        -0.707311        -0.405971
 C         1.070724         0.618567        -0.607787
 C         0.437917         1.788416        -1.547123
 C         1.244944         1.968583        -2.834040
 O         2.172536         2.988269        -2.926299
 C         2.830381         1.737879        -2.621694
 C         3.312449         1.528817        -1.244048
 C         2.545403         0.461500        -0.573448
 O         1.806316         0.997242         0.564061
 H         0.432577        -1.399031        -1.275741
 H         0.504376        -1.260208         0.536199
 H        -0.925711        -0.507950        -0.314062
 H        -0.613554         1.674102        -1.729721
 H         0.429518         2.763725        -0.893745
 H         0.831672         1.665945        -3.816584
 H         3.242972         1.338543        -3.504630
 H         4.416656         1.316355        -1.356042
 H         3.375077         2.467822        -0.770043
 H         2.961341        -0.449749        -0.466868
