19
Iteration:  3186charge 0 multiplicity 1
 C         0.079493        -0.691197        -0.371304
 C         1.050450         0.480977        -0.589186
 C         0.539724         1.672852        -1.451817
 C         1.367095         1.897834        -2.778464
 O         2.097656         3.090985        -2.928337
 C         2.848914         1.841531        -2.754308
 C         3.434027         1.532207        -1.368610
 C         2.524495         0.492700        -0.539323
 O         1.721404         1.014112         0.564775
 H         0.011237        -1.306869        -1.296232
 H         0.316768        -1.253394         0.552050
 H        -0.887507        -0.255818        -0.179195
 H        -0.468457         1.498380        -1.826689
 H         0.429357         2.700176        -0.865416
 H         0.846405         1.610435        -3.709525
 H         3.372238         1.587863        -3.640229
 H         4.442656         1.109636        -1.450095
 H         3.646707         2.326272        -0.695387
 H         3.090310        -0.285026        -0.234297
