19
Iteration:   778charge 0 multiplicity 1
 C         0.165094        -0.617862        -0.137775
 C         1.085309         0.548809        -0.634083
 C         0.373269         1.543433        -1.550700
 C         1.210044         2.335391        -2.558249
 O         2.269261         3.221697        -2.108331
 C         2.691791         2.006788        -2.767930
 C         3.293454         0.805323        -2.056741
 C         2.556996         0.315744        -0.761006
 O         1.982775         1.222894         0.315391
 H        -0.799319        -0.286426         0.256427
 H         0.205833        -1.388443        -0.899927
 H         0.621138        -1.118101         0.750877
 H        -0.506161         1.111146        -2.047255
 H        -0.182638         2.314012        -0.947613
 H         0.627334         2.628058        -3.423759
 H         2.970751         2.193220        -3.835110
 H         3.323794        -0.040581        -2.772978
 H         4.314507         1.044623        -1.801469
 H         2.931264        -0.667707        -0.371723
