19
Iteration:  1744
 C         0.110953        -0.459238         0.076821
 C         1.052308         0.549514        -0.742949
 C         0.400744         1.126482        -2.014785
 C         1.326081         2.033065        -2.808643
 O         2.030448         3.041600        -2.084628
 C         2.797504         1.943649        -2.655149
 C         3.513537         1.119939        -1.578486
 C         2.556433         0.482033        -0.616057
 O         1.829303         1.462802         0.126862
 H         0.683949        -1.327687         0.299542
 H        -0.037925        -0.040233         1.168183
 H        -0.819016        -0.574467        -0.425837
 H         0.204469         0.230782        -2.550686
 H        -0.580974         1.730454        -1.847221
 H         0.871473         2.429245        -3.750098
 H         3.511681         2.331281        -3.511349
 H         4.183983         0.405684        -2.124510
 H         4.247275         1.819966        -1.093288
 H         2.921277        -0.470345        -0.157054
