19
Iteration:  2141charge 0 multiplicity 1
 C         0.329552        -0.566866        -0.173167
 C         1.095270         0.503124        -0.743308
 C         0.359972         1.386467        -1.774895
 C         1.288011         2.020112        -2.772924
 O         2.148357         2.985285        -2.248046
 C         2.815880         1.808492        -2.677902
 C         3.488433         1.122265        -1.620769
 C         2.521332         0.588683        -0.501113
 O         1.627705         1.468794         0.266766
 H         0.214305        -1.439309        -0.875663
 H         0.600936        -0.952726         0.703998
 H        -0.719601        -0.101569        -0.226907
 H        -0.354572         0.797592        -2.449046
 H        -0.314405         2.114932        -1.213625
 H         0.930308         2.274328        -3.835092
 H         3.320361         2.070798        -3.686973
 H         3.967655         0.202893        -1.962392
 H         4.218257         1.759266        -1.106958
 H         2.972521        -0.189146         0.137845
