19
Iteration:  3459charge 0 multiplicity 1
 C         0.224690        -0.724931        -0.403218
 C         1.031535         0.567152        -0.636770
 C         0.326075         1.626395        -1.577239
 C         1.286507         1.911613        -2.766007
 O         2.232254         3.017513        -2.533848
 C         2.770475         1.714231        -2.754745
 C         3.461383         1.367329        -1.475092
 C         2.592065         0.590631        -0.546150
 O         1.686100         1.277156         0.436100
 H         0.119167        -1.235557        -1.341552
 H         0.770250        -1.524334         0.216576
 H        -0.635483        -0.480645         0.136181
 H        -0.624461         1.329462        -1.832043
 H         0.371786         2.615524        -0.889473
 H         0.822491         1.901961        -3.837583
 H         3.224884         1.463680        -3.730248
 H         4.376299         0.725497        -1.726419
 H         3.727801         2.294739        -0.915105
 H         2.875759        -0.288652         0.004110
