19
Iteration:  2609charge 0 multiplicity 1
 C         0.180094        -0.466244         0.097753
 C         0.983723         0.532784        -0.646654
 C         0.433639         1.095143        -2.004105
 C         1.401227         1.986509        -2.820092
 O         2.131154         3.216992        -2.107381
 C         2.787412         2.062626        -2.627317
 C         3.388961         1.002404        -1.706307
 C         2.527402         0.508640        -0.561631
 O         1.765692         1.432396         0.158581
 H         0.093632        -1.433267        -0.580255
 H         0.692540        -0.595221         0.999565
 H        -0.891828        -0.140804         0.187927
 H         0.516424         0.213401        -2.560507
 H        -0.668607         1.361308        -2.065220
 H         1.044620         2.308505        -3.838616
 H         3.362078         2.189375        -3.545131
 H         3.736323         0.159938        -2.366264
 H         4.391695         1.350008        -1.330556
 H         2.977081        -0.303188         0.119613
