19
Iteration:   819charge 0 multiplicity 1
 C         0.114210        -0.324123         0.088673
 C         1.047187         0.521594        -0.703003
 C         0.321771         1.397689        -1.741950
 C         1.207689         2.300029        -2.543644
 O         2.172912         3.160765        -1.936940
 C         2.652809         1.998344        -2.728067
 C         3.481268         0.944794        -2.015205
 C         2.532553         0.212675        -0.906467
 O         2.059942         1.099155         0.152846
 H        -0.428699         0.261361         0.769096
 H        -0.627027        -0.797178        -0.470268
 H         0.782364        -1.019673         0.765928
 H        -0.227354         0.614861        -2.512347
 H        -0.506762         1.904190        -1.222229
 H         0.713124         2.956877        -3.314574
 H         3.097337         2.337707        -3.794448
 H         4.092869         0.349718        -2.689506
 H         4.247451         1.509639        -1.400722
 H         2.887778        -0.747344        -0.372699
