19
Iteration:  3578charge 0 multiplicity 1
 C         0.233417        -0.433253         0.051064
 C         1.052829         0.534462        -0.738318
 C         0.480420         1.092810        -2.050156
 C         1.367687         2.150896        -2.782398
 O         2.013544         3.069624        -1.952148
 C         2.827533         1.916310        -2.639560
 C         3.431328         0.925864        -1.662255
 C         2.530673         0.534799        -0.529420
 O         1.701024         1.550759         0.037315
 H        -0.046255        -1.127129        -0.677525
 H         0.776084        -1.025654         0.861582
 H        -0.600556         0.121964         0.482915
 H         0.333163         0.238516        -2.832773
 H        -0.537836         1.500387        -1.769329
 H         0.945477         2.476036        -3.803672
 H         3.441273         2.264886        -3.511701
 H         3.812335         0.043600        -2.242759
 H         4.296579         1.373740        -1.188895
 H         3.088495        -0.296196         0.148877
