19
Iteration:  1904
 C         0.113880        -0.530601        -0.131951
 C         1.041879         0.596808        -0.633330
 C         0.431945         1.366210        -1.862674
 C         1.348915         1.867370        -2.849037
 O         2.038457         3.140763        -2.520679
 C         2.821729         1.955577        -2.641994
 C         3.492299         1.229867        -1.497835
 C         2.534028         0.550103        -0.564740
 O         1.838526         1.247548         0.476943
 H        -0.012424        -1.146096        -1.047733
 H         0.514570        -1.305083         0.700686
 H        -0.933353        -0.312533         0.192645
 H        -0.225580         0.440519        -2.222067
 H        -0.271389         2.168833        -1.578135
 H         0.992599         1.938501        -3.863807
 H         3.393832         2.023911        -3.496539
 H         3.912159         0.318842        -1.979057
 H         4.290439         1.787733        -0.972036
 H         2.928694        -0.395765        -0.240674
