19
Iteration:   118charge 0 multiplicity 1
 C         0.175569        -0.435289        -0.058168
 C         1.085250         0.634474        -0.680963
 C         0.357773         1.628243        -1.577648
 C         1.189319         2.242514        -2.703926
 O         2.185729         3.178114        -2.290547
 C         2.645222         1.934967        -2.720960
 C         3.358569         1.071869        -1.703204
 C         2.485315         0.237469        -0.871370
 O         2.095490         0.919202         0.325766
 H         0.786690        -1.198700         0.255590
 H        -0.477093        -0.124970         0.787417
 H        -0.626523        -0.795171        -0.843082
 H        -0.493900         1.029591        -2.052541
 H        -0.115459         2.369834        -0.949625
 H         0.731609         2.450484        -3.652409
 H         3.216446         1.817160        -3.651512
 H         4.150100         0.383059        -2.180106
 H         3.943394         1.694629        -1.028537
 H         2.868680        -0.811543        -0.840337
