19
Iteration:  3522charge 0 multiplicity 1
 C         0.087400        -0.527678        -0.054704
 C         1.023303         0.567890        -0.687443
 C         0.499690         1.315159        -1.841822
 C         1.400197         2.004850        -2.898280
 O         1.993728         3.184759        -2.411165
 C         2.869355         1.994206        -2.673169
 C         3.448426         1.164803        -1.541678
 C         2.470984         0.441688        -0.560858
 O         1.837479         1.229790         0.413346
 H        -0.078661        -1.400791        -0.643602
 H         0.672378        -0.764198         0.851679
 H        -0.938216        -0.188495         0.246320
 H        -0.023890         0.497626        -2.489385
 H        -0.220618         2.083566        -1.501071
 H         1.055967         2.153786        -3.947265
 H         3.417327         1.948823        -3.641237
 H         4.180446         0.484555        -2.017360
 H         4.045258         1.756124        -0.857092
 H         3.031258        -0.581866        -0.326255
