19
Iteration:  3871charge 0 multiplicity 1
 C         0.237489        -0.524521        -0.116035
 C         1.019340         0.646680        -0.708802
 C         0.408392         1.346405        -1.868986
 C         1.330663         1.999228        -2.845503
 O         2.029616         3.075872        -2.282800
 C         2.802507         1.881054        -2.626877
 C         3.520317         1.112711        -1.530159
 C         2.508809         0.400409        -0.551107
 O         1.781392         1.412886         0.217919
 H         0.044614        -1.281310        -0.846694
 H         0.860722        -1.031381         0.666043
 H        -0.662835        -0.222823         0.472801
 H        -0.232737         0.656262        -2.331564
 H        -0.340625         2.037469        -1.445642
 H         0.876618         2.184756        -3.800303
 H         3.443773         2.039572        -3.561222
 H         4.368972         0.449004        -1.715899
 H         3.915353         1.787076        -0.714721
 H         2.852448        -0.628313        -0.108475
