19
Iteration:   851
 C         0.202111        -0.280398         0.164394
 C         1.040137         0.562107        -0.744941
 C         0.393023         1.371329        -1.842799
 C         1.292710         2.211264        -2.707475
 O         2.032123         3.173213        -1.856972
 C         2.721574         2.087404        -2.554666
 C         3.315840         0.891633        -2.010455
 C         2.389597         0.172342        -0.943415
 O         2.180693         1.136694         0.139330
 H         0.086859         0.261871         1.046956
 H        -0.628855        -0.738309        -0.258336
 H         0.801990        -1.275301         0.518168
 H        -0.266670         0.703992        -2.371440
 H        -0.289717         2.073872        -1.450901
 H         0.784025         2.740065        -3.598794
 H         3.296302         2.536359        -3.441095
 H         3.695921         0.315070        -2.867598
 H         4.186645         1.183131        -1.331714
 H         2.712389        -0.803147        -0.473027
