19
Iteration:  4311
 C         0.037232        -0.502155         0.053920
 C         1.007825         0.515279        -0.714555
 C         0.549475         1.101835        -2.027026
 C         1.354443         2.039686        -2.824554
 O         2.016091         3.128234        -2.049027
 C         2.827090         2.083040        -2.570243
 C         3.438804         0.983976        -1.740502
 C         2.524640         0.524075        -0.610369
 O         1.869550         1.493200         0.236667
 H         0.060351        -1.481798        -0.482866
 H         0.307044        -0.465405         1.180812
 H        -0.976618        -0.044329        -0.058909
 H         0.348652         0.093903        -2.711282
 H        -0.431190         1.431440        -1.982432
 H         1.161207         2.191709        -3.904932
 H         3.420695         2.499085        -3.402603
 H         3.579692         0.158233        -2.435410
 H         4.370522         1.170879        -1.308933
 H         3.149972        -0.284418        -0.072765
