19
Iteration:   695
 C         0.070664        -0.472748        -0.107867
 C         1.109900         0.401139        -0.652236
 C         0.344892         1.546654        -1.482665
 C         1.167652         2.223436        -2.621917
 O         2.255038         3.294376        -2.317115
 C         2.661604         2.042535        -2.765169
 C         3.382176         1.036933        -1.872493
 C         2.582836         0.229815        -0.789285
 O         2.045386         1.004165         0.335111
 H        -0.508527         0.293478         0.527856
 H        -0.665202        -0.830876        -0.890333
 H         0.361759        -1.209771         0.497836
 H        -0.588035         0.947135        -1.972054
 H         0.076891         2.340023        -0.765624
 H         0.582071         2.621806        -3.489817
 H         3.106187         1.944387        -3.747309
 H         3.880080         0.325064        -2.542563
 H         4.207336         1.562979        -1.307169
 H         2.955933        -0.721871        -0.485803
