19
Iteration:  2094
 C         0.129368        -0.476643         0.003549
 C         1.064590         0.562232        -0.675579
 C         0.494296         1.104079        -1.962122
 C         1.384597         2.018914        -2.850259
 O         1.997002         3.207334        -2.285146
 C         2.876000         2.035553        -2.623341
 C         3.393190         1.036908        -1.561229
 C         2.511394         0.451863        -0.601001
 O         1.810972         1.417245         0.301526
 H        -0.347233        -1.237068        -0.678580
 H         0.710994        -1.108461         0.774945
 H        -0.732804         0.094867         0.441097
 H         0.177853         0.182939        -2.632895
 H        -0.442052         1.633387        -1.777496
 H         1.005565         2.304898        -3.901470
 H         3.593249         2.281332        -3.433529
 H         3.810538         0.141924        -2.085495
 H         4.216528         1.490888        -0.994639
 H         2.872980        -0.412458        -0.119242
