19
Iteration:  3128
 C         0.252490        -0.683507        -0.355107
 C         1.016130         0.548278        -0.594359
 C         0.474389         1.614998        -1.574189
 C         1.284658         1.924568        -2.901614
 O         2.206616         3.042646        -2.687635
 C         2.762466         1.784786        -2.768523
 C         3.376840         1.433533        -1.387087
 C         2.537164         0.551388        -0.492044
 O         1.706009         1.137430         0.541872
 H        -0.209383        -1.061442        -1.284532
 H         0.944176        -1.462307        -0.173703
 H        -0.613330        -0.556662         0.472123
 H        -0.600913         1.425524        -1.721517
 H         0.621844         2.633655        -1.103242
 H         0.875513         1.861780        -3.945211
 H         3.240762         1.489253        -3.792574
 H         4.370619         0.890780        -1.641333
 H         3.409827         2.382325        -0.841617
 H         2.944362        -0.431533        -0.150109
