19
Iteration:  1682
 C         0.143882        -0.564476        -0.017869
 C         1.057547         0.527285        -0.605153
 C         0.467706         1.198404        -1.859297
 C         1.406556         2.034495        -2.762969
 O         2.072636         3.247830        -2.321966
 C         2.839517         1.991768        -2.713760
 C         3.377237         1.080862        -1.688520
 C         2.510872         0.454437        -0.565945
 O         1.780231         1.402624         0.314438
 H         0.273344        -0.699186         1.185910
 H        -0.897153        -0.443688        -0.150306
 H         0.379819        -1.587415        -0.654938
 H        -0.048259         0.354056        -2.482748
 H        -0.330592         1.885261        -1.658220
 H         0.941449         2.225712        -3.775503
 H         3.433599         2.127876        -3.593372
 H         3.696702         0.203145        -2.256611
 H         4.289569         1.445024        -1.219228
 H         3.011751        -0.428530        -0.095714
