19
Iteration:  3523
 C         0.081889        -0.523251        -0.054690
 C         1.016739         0.572824        -0.695222
 C         0.491711         1.303145        -1.845373
 C         1.400731         1.997397        -2.884970
 O         1.992066         3.183198        -2.401899
 C         2.876923         1.995709        -2.668428
 C         3.455682         1.165103        -1.546571
 C         2.477139         0.436235        -0.572104
 O         1.831749         1.235005         0.411157
 H        -0.059972        -1.382787        -0.623471
 H         0.665729        -0.762725         0.866476
 H        -0.892447        -0.154454         0.236219
 H         0.018774         0.497232        -2.471283
 H        -0.245754         2.120455        -1.500676
 H         1.045173         2.149726        -3.946321
 H         3.404306         1.948003        -3.646271
 H         4.188743         0.468954        -2.028130
 H         4.063209         1.791601        -0.890688
 H         3.053438        -0.580969        -0.321375
