19
Iteration:  1231
 C         0.055134        -0.296707         0.016397
 C         1.103416         0.530159        -0.703227
 C         0.397312         1.292929        -1.832585
 C         1.179280         2.254165        -2.642506
 O         2.152872         3.129793        -1.918479
 C         2.660068         1.978915        -2.745474
 C         3.386760         0.903122        -1.975679
 C         2.572761         0.350814        -0.726339
 O         2.088459         1.178647         0.221420
 H        -0.333432        -1.066830        -0.590300
 H         0.523927        -0.776811         0.813627
 H        -0.762152         0.417758         0.325818
 H        -0.030550         0.575624        -2.457114
 H        -0.520734         1.745836        -1.437530
 H         0.684405         2.710832        -3.576835
 H         3.159734         2.386239        -3.722894
 H         3.805177        -0.036017        -2.498842
 H         4.213073         1.529184        -1.518630
 H         3.189933        -0.437708        -0.248609
