19
Iteration:   296charge 0 multiplicity 1
 C         0.152967        -0.277561         0.160906
 C         0.975242         0.650855        -0.618594
 C         0.341568         1.367714        -1.862758
 C         1.227506         2.226333        -2.640282
 O         2.164807         3.162824        -1.952205
 C         2.679125         2.025460        -2.672709
 C         3.370206         0.964215        -1.906664
 C         2.503865         0.195868        -0.933935
 O         2.142279         1.089480         0.156760
 H         0.930294        -1.150963         0.484106
 H        -0.481925        -0.042957         0.985001
 H        -0.551912        -0.803546        -0.698030
 H         0.172423         0.441823        -2.504604
 H        -0.582958         1.891041        -1.733037
 H         0.762201         2.725762        -3.401192
 H         3.227116         2.280154        -3.532766
 H         3.783799         0.242446        -2.654646
 H         4.146362         1.474795        -1.337196
 H         2.722495        -0.781545        -0.570415
