19
Iteration:  2347charge 0 multiplicity 1
 C         0.203681        -0.473240        -0.159489
 C         1.102626         0.634569        -0.715217
 C         0.413304         1.270338        -1.943983
 C         1.255582         2.038201        -2.854202
 O         2.033845         2.969036        -2.053501
 C         2.742838         1.883918        -2.647097
 C         3.536177         0.943094        -1.584952
 C         2.572857         0.560962        -0.509145
 O         1.785536         1.545721         0.172409
 H         0.391549        -1.495902        -0.727605
 H         0.456993        -0.652329         0.827842
 H        -0.938087        -0.422413        -0.185314
 H        -0.029740         0.341681        -2.503404
 H        -0.381652         1.839550        -1.502966
 H         0.813884         2.477239        -3.869329
 H         3.299425         2.017776        -3.595978
 H         4.172815         0.047764        -1.859778
 H         4.226544         1.640103        -1.122617
 H         2.987030        -0.166706         0.221495
