19
Iteration:  1660
 C         0.207269        -0.569203        -0.168027
 C         1.108888         0.577556        -0.619451
 C         0.441345         1.288817        -1.816698
 C         1.234010         2.122520        -2.784837
 O         2.179005         3.156343        -2.356767
 C         2.740549         1.960084        -2.725064
 C         3.403139         1.011365        -1.645730
 C         2.555067         0.554662        -0.508165
 O         1.750192         1.353082         0.399979
 H         0.008907        -0.469325         1.017645
 H        -0.732371        -0.722870        -0.644251
 H         0.855165        -1.599155        -0.335119
 H         0.157951         0.357872        -2.451378
 H        -0.510909         1.685393        -1.594889
 H         0.840677         2.206804        -3.819025
 H         3.209009         1.989766        -3.710533
 H         3.714268         0.089637        -2.132862
 H         4.292638         1.438582        -1.186731
 H         3.050385        -0.313459        -0.000040
