19
Iteration:  2960charge 0 multiplicity 1
 C         0.251249        -0.468461        -0.000494
 C         1.033328         0.522759        -0.744904
 C         0.388374         1.102407        -2.020164
 C         1.345505         2.033276        -2.818722
 O         2.089701         2.972903        -1.913517
 C         2.863310         1.977488        -2.722995
 C         3.480251         1.009189        -1.720891
 C         2.506811         0.617614        -0.591731
 O         1.687547         1.577048         0.168620
 H        -0.213498        -1.192934        -0.699508
 H         0.879619        -0.980214         0.854057
 H        -0.609040        -0.030200         0.488463
 H         0.215290         0.165477        -2.685839
 H        -0.572545         1.591724        -1.788432
 H         0.870142         2.400492        -3.648692
 H         3.500099         2.407749        -3.420655
 H         3.722410         0.077790        -2.180480
 H         4.376741         1.480338        -1.106783
 H         3.000684        -0.094616         0.160886
