19
Iteration:  2566charge 0 multiplicity 1
 C         0.091929        -0.371085        -0.017791
 C         1.113061         0.572706        -0.780222
 C         0.395645         1.259189        -1.887355
 C         1.315156         1.902675        -2.853417
 O         1.994667         3.114522        -2.184969
 C         2.808867         2.002138        -2.570078
 C         3.461267         1.092389        -1.593521
 C         2.624985         0.441700        -0.587650
 O         1.833262         1.335416         0.196351
 H         0.290648        -1.504516        -0.242707
 H         0.252895        -0.270474         0.983022
 H        -0.983624        -0.310222        -0.306465
 H        -0.141490         0.475560        -2.446406
 H        -0.328922         1.992878        -1.418453
 H         1.146443         1.874101        -3.992106
 H         3.448038         2.432794        -3.311087
 H         4.008833         0.264233        -2.166403
 H         4.276539         1.672178        -1.153199
 H         3.086214        -0.469797        -0.035220
