19
Iteration:   898charge 0 multiplicity 1
 C         0.126035        -0.391551        -0.000597
 C         1.127720         0.497937        -0.675423
 C         0.381758         1.315900        -1.738907
 C         1.201840         2.254995        -2.527549
 O         2.289419         3.210699        -1.881628
 C         2.604274         2.049833        -2.791274
 C         3.261164         0.847757        -2.055956
 C         2.554237         0.299824        -0.802135
 O         2.054820         1.245362         0.156855
 H        -0.379724         0.174597         0.791402
 H        -0.549299        -0.914551        -0.683391
 H         0.602050        -1.196017         0.524472
 H        -0.217335         0.716647        -2.521229
 H        -0.407704         1.812633        -1.170906
 H         0.664847         2.815084        -3.271895
 H         3.066862         2.468431        -3.810944
 H         3.532598        -0.069941        -2.592887
 H         4.183879         1.224806        -1.598734
 H         2.963938        -0.674066        -0.346659
