19
Iteration:  3069charge 0 multiplicity 1
 C         0.210695        -0.643277        -0.301408
 C         1.078052         0.603971        -0.638859
 C         0.427869         1.578909        -1.689005
 C         1.341500         1.919794        -2.887729
 O         2.084220         3.126429        -2.639947
 C         2.757221         1.833581        -2.679634
 C         3.374095         1.284508        -1.386425
 C         2.517994         0.491811        -0.529418
 O         1.838755         1.170789         0.515218
 H         0.114740        -1.379383        -1.145811
 H         0.519730        -1.114866         0.721778
 H        -0.795476        -0.326281        -0.076073
 H        -0.475200         1.061244        -2.016500
 H         0.088434         2.454970        -1.317632
 H         1.038531         1.770925        -3.897355
 H         3.378264         1.618457        -3.490857
 H         4.281992         0.861129        -1.643272
 H         3.766370         2.204077        -0.823050
 H         2.862632        -0.590139        -0.355497
