19
Iteration:   180
 C         0.152219        -0.540956        -0.072091
 C         1.073800         0.530365        -0.681187
 C         0.399056         1.543267        -1.607886
 C         1.248033         2.271889        -2.600287
 O         2.256349         3.319491        -2.199678
 C         2.665320         1.918723        -2.816127
 C         3.319704         0.890888        -1.877876
 C         2.537690         0.332119        -0.728925
 O         1.968440         1.087863         0.315715
 H         0.875704        -1.090002         0.690509
 H        -0.758508        -0.196799         0.493226
 H        -0.175942        -1.306085        -0.823595
 H        -0.403075         1.072756        -2.204436
 H        -0.098769         2.359382        -0.947600
 H         0.634209         2.561424        -3.561534
 H         2.867062         2.083747        -3.914556
 H         3.739138         0.073864        -2.445972
 H         4.226361         1.423756        -1.466123
 H         2.796133        -0.704465        -0.445956
