19
Iteration:  1886
 C         0.123625        -0.553440        -0.145602
 C         1.041411         0.581045        -0.569760
 C         0.457456         1.274208        -1.772794
 C         1.381619         1.961907        -2.848992
 O         2.032153         3.240602        -2.603484
 C         2.867902         2.030863        -2.680850
 C         3.460200         1.169936        -1.551748
 C         2.523717         0.430120        -0.478111
 O         1.742673         1.265398         0.448440
 H        -0.387233        -1.119225        -0.870244
 H         0.758755        -1.285449         0.399733
 H        -0.494988        -0.012198         0.512601
 H         0.012428         0.469317        -2.332856
 H        -0.296386         1.962054        -1.432132
 H         1.020044         1.725740        -3.964765
 H         3.597670         2.004842        -3.617231
 H         4.036395         0.413244        -2.098730
 H         4.245393         1.644504        -0.952435
 H         2.869954        -0.475546         0.022973
