19
Iteration:  2565charge 0 multiplicity 1
 C         0.089561        -0.371138        -0.021704
 C         1.110338         0.582737        -0.778667
 C         0.388167         1.260625        -1.883989
 C         1.315104         1.907363        -2.847765
 O         2.002101         3.097465        -2.192244
 C         2.802759         1.994352        -2.564293
 C         3.454982         1.101017        -1.586053
 C         2.631711         0.445185        -0.598211
 O         1.835751         1.334421         0.194349
 H         0.288506        -1.538306        -0.281134
 H         0.275461        -0.252812         0.990918
 H        -0.997821        -0.331138        -0.339712
 H        -0.114223         0.488631        -2.417206
 H        -0.361942         1.992093        -1.390470
 H         1.135459         1.885624        -3.975810
 H         3.454906         2.444887        -3.299653
 H         4.038422         0.288840        -2.148221
 H         4.307306         1.699656        -1.153454
 H         3.089908        -0.477630        -0.038484
