19
Iteration:  4672charge 0 multiplicity 1
 C         0.130397        -0.641924        -0.301621
 C         1.019175         0.486833        -0.584573
 C         0.510537         1.616910        -1.567044
 C         1.392227         1.866428        -2.795725
 O         2.090182         3.171637        -2.815994
 C         2.897363         1.936719        -2.801025
 C         3.409829         1.357954        -1.366325
 C         2.490380         0.499556        -0.526121
 O         1.696045         1.083880         0.524930
 H        -0.669785        -0.951083        -1.057137
 H         0.753725        -1.619029        -0.213193
 H        -0.325476        -0.592963         0.720725
 H        -0.464400         1.418786        -1.909399
 H         0.326615         2.618872        -0.979865
 H         0.950839         1.408290        -3.717872
 H         3.548347         1.853118        -3.625090
 H         4.330460         0.688381        -1.614931
 H         3.786108         2.207910        -0.728139
 H         3.016415        -0.443928        -0.305345
