19
Iteration:  1637
 C         0.305266        -0.616901        -0.163833
 C         1.049057         0.561583        -0.684132
 C         0.381475         1.386370        -1.808901
 C         1.277093         2.082251        -2.744233
 O         2.164591         3.124923        -2.235919
 C         2.714984         1.735246        -2.782125
 C         3.474242         1.085032        -1.607340
 C         2.510656         0.586366        -0.524406
 O         1.760267         1.389950         0.283489
 H        -0.286422        -0.300958         0.822331
 H        -0.478864        -0.922290        -0.907127
 H         0.976243        -1.641948         0.141286
 H        -0.382703         0.767802        -2.426173
 H        -0.268848         2.145343        -1.377732
 H         0.757551         2.332463        -3.681606
 H         3.242302         1.897899        -3.654730
 H         4.061175         0.264227        -2.009002
 H         4.161105         1.874101        -1.281433
 H         2.904869        -0.340160         0.007873
