19
Iteration:  3760
 C         0.269641        -0.625909        -0.345039
 C         1.005378         0.627286        -0.653467
 C         0.434114         1.546361        -1.620418
 C         1.310224         1.835301        -2.823141
 O         2.185713         3.018735        -2.448136
 C         2.821152         1.749268        -2.742952
 C         3.409899         1.311180        -1.491127
 C         2.489848         0.542622        -0.586297
 O         1.697566         1.306114         0.433515
 H        -0.040181        -1.128361        -1.212554
 H         0.936216        -1.354474         0.242585
 H        -0.605342        -0.452162         0.351710
 H        -0.451098         1.079377        -1.911982
 H         0.328671         2.495019        -1.116200
 H         0.797228         2.158517        -3.692250
 H         3.194535         1.750725        -3.769346
 H         4.361836         0.815831        -1.731818
 H         3.612557         2.256798        -0.878441
 H         2.884489        -0.508457        -0.286769
