19
Iteration:  2295charge 0 multiplicity 1
 C         0.281622        -0.605521         0.078237
 C         1.023333         0.483533        -0.657974
 C         0.450086         1.188606        -2.014634
 C         1.396752         2.162251        -2.832529
 O         2.216449         3.217006        -2.236592
 C         2.826230         1.984970        -2.678972
 C         3.388533         0.961720        -1.713005
 C         2.492280         0.484481        -0.490535
 O         1.553662         1.475441         0.258606
 H         0.055115        -1.592218        -0.408958
 H         0.686420        -0.875952         1.031037
 H        -0.636210        -0.125082         0.522835
 H         0.129729         0.378354        -2.684441
 H        -0.395245         1.804882        -1.705938
 H         1.002181         2.262517        -3.838645
 H         3.603601         2.084094        -3.467463
 H         3.726346         0.085233        -2.269638
 H         4.341648         1.381111        -1.354063
 H         2.888676        -0.239692         0.148385
