19
Iteration:  1791
 C         0.220079        -0.519873        -0.001799
 C         1.092384         0.530070        -0.652450
 C         0.509748         1.105729        -1.983582
 C         1.359183         2.098437        -2.841385
 O         2.023594         3.165079        -2.252767
 C         2.817466         1.999912        -2.662862
 C         3.400174         0.980551        -1.625845
 C         2.564914         0.555970        -0.445696
 O         1.689050         1.455617         0.250996
 H         0.189239        -1.404940        -0.740863
 H         0.568879        -0.887025         0.926568
 H        -0.770912         0.083794         0.081623
 H         0.179415         0.234645        -2.660944
 H        -0.404951         1.725110        -1.625809
 H         0.976371         2.285202        -3.763466
 H         3.351979         2.193700        -3.531584
 H         3.373385         0.062964        -2.285861
 H         4.484182         1.077684        -1.458290
 H         3.114353        -0.150420         0.267803
