19
Iteration:  3787
 C         0.247423        -0.635227        -0.306453
 C         1.044824         0.629856        -0.680353
 C         0.343185         1.615178        -1.696340
 C         1.285663         1.916687        -2.832737
 O         2.091802         3.085712        -2.618531
 C         2.807449         1.798599        -2.635648
 C         3.507742         1.252695        -1.423861
 C         2.545870         0.538897        -0.494521
 O         1.770591         1.183239         0.483919
 H         0.058634        -1.424094        -1.141192
 H         0.706745        -1.147908         0.520683
 H        -0.743638        -0.337131         0.063078
 H        -0.481574         0.964750        -2.152270
 H         0.013710         2.610905        -1.188230
 H         0.823221         2.023472        -3.847293
 H         3.217496         1.712920        -3.623213
 H         4.157103         0.475755        -1.864530
 H         4.134836         1.958144        -0.904407
 H         2.964631        -0.392688        -0.257229
