19
Iteration:   263charge 0 multiplicity 1
 C         0.102287        -0.362018         0.012256
 C         1.123997         0.443590        -0.708144
 C         0.401167         1.382470        -1.756508
 C         1.265806         2.220874        -2.618619
 O         2.146558         3.220776        -1.967376
 C         2.672646         2.066824        -2.687388
 C         3.276114         0.838848        -2.052163
 C         2.582236         0.289695        -0.753214
 O         2.049536         1.225455         0.248664
 H         0.551603        -0.889946         0.933070
 H        -0.723824         0.252492         0.287767
 H        -0.208770        -1.230175        -0.698989
 H        -0.343701         0.875948        -2.403201
 H        -0.190567         2.061255        -1.191435
 H         0.770739         2.661070        -3.402604
 H         3.317638         2.221692        -3.467343
 H         3.113406         0.089961        -2.877457
 H         4.360302         0.921962        -1.925781
 H         3.172201        -0.517204        -0.365401
