19
Iteration:  2959
 C         0.242320        -0.462659        -0.000843
 C         1.047162         0.522109        -0.745072
 C         0.389786         1.104302        -2.022433
 C         1.342617         2.032200        -2.822210
 O         2.089575         2.968438        -1.908929
 C         2.851569         1.977675        -2.708014
 C         3.481669         1.002838        -1.727204
 C         2.511325         0.614697        -0.589108
 O         1.687983         1.581660         0.162224
 H        -0.225663        -1.202978        -0.713509
 H         0.864678        -0.940064         0.836415
 H        -0.605931        -0.046001         0.484385
 H         0.218672         0.192477        -2.679320
 H        -0.532347         1.549620        -1.799739
 H         0.833040         2.400148        -3.639038
 H         3.509341         2.389638        -3.396259
 H         3.761477         0.104411        -2.178105
 H         4.348159         1.496290        -1.123628
 H         3.021925        -0.083186         0.150723
