19
Iteration:  2524
 C         0.188521        -0.612694        -0.091550
 C         1.028116         0.547969        -0.615978
 C         0.426403         1.320454        -1.800388
 C         1.327862         2.068042        -2.796805
 O         2.198140         3.120219        -2.371805
 C         2.822466         1.868486        -2.747950
 C         3.366269         1.162809        -1.612345
 C         2.507862         0.498590        -0.537219
 O         1.745698         1.360769         0.323642
 H         0.408454        -1.507695        -0.610452
 H         0.521099        -0.785123         0.901223
 H        -0.862373        -0.401726         0.017593
 H        -0.060157         0.497431        -2.457755
 H        -0.389132         1.950628        -1.517123
 H         0.855521         2.414475        -3.742912
 H         3.492207         1.923365        -3.609137
 H         4.107159         0.479733        -2.040360
 H         3.840489         1.968076        -1.098893
 H         3.011363        -0.326493        -0.032269
