19
Iteration:  2742
 C         0.070682        -0.530002        -0.179098
 C         1.066754         0.513046        -0.618354
 C         0.454592         1.371196        -1.650117
 C         1.341192         1.949408        -2.827116
 O         2.090636         3.100903        -2.476480
 C         2.774493         1.847642        -2.711912
 C         3.555206         1.369315        -1.494781
 C         2.546777         0.485472        -0.662186
 O         1.770726         1.208520         0.357638
 H         0.078377        -1.382771        -0.907871
 H         0.154150        -0.938965         0.926369
 H        -0.935645        -0.109255        -0.216165
 H        -0.288200         0.840067        -2.032417
 H        -0.132851         2.241075        -1.210596
 H         0.935763         1.804053        -3.870352
 H         3.355131         1.818612        -3.592883
 H         4.614927         0.965856        -1.732293
 H         3.663310         2.264341        -0.935099
 H         3.094402        -0.383290        -0.195990
