19
Iteration:  4002charge 0 multiplicity 1
 C         0.106090        -0.533415         0.011214
 C         1.099665         0.467218        -0.746848
 C         0.481428         1.285086        -1.908951
 C         1.385285         2.023494        -2.908829
 O         1.982018         3.148733        -2.324837
 C         2.850442         2.026479        -2.618616
 C         3.442549         1.113245        -1.619647
 C         2.536224         0.475600        -0.487011
 O         1.779119         1.328780         0.328074
 H        -0.072894        -1.441108        -0.445288
 H         0.439653        -0.615654         1.009748
 H        -0.915781        -0.129016        -0.070688
 H        -0.269795         0.476598        -2.371953
 H        -0.064804         2.015925        -1.424213
 H         1.134780         2.291560        -3.918073
 H         3.559636         2.250591        -3.487638
 H         3.694711         0.206619        -2.135084
 H         4.376153         1.568505        -1.229831
 H         3.152479        -0.404465        -0.021921
