19
Iteration:  3151
 C         0.293433        -0.558992        -0.465777
 C         1.073818         0.613139        -0.647315
 C         0.423956         1.684850        -1.607943
 C         1.328991         1.866273        -2.785853
 O         2.037945         3.056567        -2.784869
 C         2.771642         1.740745        -2.658103
 C         3.415413         1.392513        -1.300851
 C         2.529314         0.438682        -0.546015
 O         1.789563         1.110809         0.595171
 H        -0.234457        -0.880844        -1.396823
 H         0.805386        -1.402829        -0.131988
 H        -0.565430        -0.178579         0.257934
 H        -0.488457         1.261704        -2.003596
 H         0.240202         2.689912        -1.050547
 H         0.887451         1.508333        -3.768400
 H         3.406115         1.537019        -3.575517
 H         4.404994         0.920919        -1.618582
 H         3.393337         2.330321        -0.778514
 H         2.907405        -0.450705        -0.145960
