19
Iteration:   374
 C         0.229106        -0.539506        -0.169962
 C         1.062634         0.669176        -0.543158
 C         0.387691         1.496545        -1.628709
 C         1.227753         2.310896        -2.580639
 O         2.222287         3.154039        -2.165755
 C         2.693883         1.964213        -2.801319
 C         3.245618         0.875205        -1.904462
 C         2.476493         0.318076        -0.747775
 O         2.053879         1.197867         0.338568
 H         0.969197        -1.228108         0.532777
 H        -0.752503        -0.469158         0.346903
 H        -0.097228        -1.011573        -1.176693
 H        -0.238754         0.810494        -2.289915
 H        -0.417437         2.129167        -1.207557
 H         0.619644         2.563096        -3.468184
 H         3.070670         2.114799        -3.819286
 H         3.451974         0.021211        -2.577920
 H         4.308395         1.105984        -1.638999
 H         2.838479        -0.645453        -0.327959
