19
Iteration:  3572charge 0 multiplicity 1
 C         0.182814        -0.453914         0.033906
 C         1.066709         0.502690        -0.765169
 C         0.493191         1.106512        -2.039454
 C         1.334483         2.107659        -2.757532
 O         2.002273         3.062522        -1.970177
 C         2.788789         1.885515        -2.683696
 C         3.452453         0.968823        -1.652065
 C         2.548203         0.504373        -0.485416
 O         1.758967         1.563752         0.027860
 H        -0.219593        -1.294425        -0.665201
 H         0.663282        -0.926706         0.852201
 H        -0.622715         0.194455         0.451259
 H         0.313962         0.490298        -2.872302
 H        -0.353547         1.820648        -1.697191
 H         1.029618         2.489917        -3.711224
 H         3.430438         2.402098        -3.378265
 H         3.991459         0.201190        -2.220396
 H         4.241456         1.492767        -1.021210
 H         2.975711        -0.199261         0.146065
