19
Iteration:  2136charge 0 multiplicity 1
 C         0.309356        -0.539853        -0.220737
 C         1.124402         0.535878        -0.734252
 C         0.374190         1.331897        -1.784805
 C         1.282082         2.004120        -2.754756
 O         2.108229         3.000095        -2.223130
 C         2.834299         1.825974        -2.692504
 C         3.494075         1.085487        -1.618517
 C         2.516939         0.629475        -0.500362
 O         1.644870         1.462625         0.256723
 H         0.190030        -1.342331        -0.974808
 H         0.423871        -1.006136         0.888243
 H        -0.657437        -0.024355        -0.135192
 H        -0.391048         0.745953        -2.343317
 H        -0.169352         2.089316        -1.247574
 H         0.924844         2.150778        -3.780776
 H         3.316454         2.002246        -3.612765
 H         3.984964         0.168136        -2.009391
 H         4.248123         1.714494        -1.111165
 H         2.890185        -0.225702         0.074579
