19
Iteration:   255
 C         0.107315        -0.412341        -0.027518
 C         1.104223         0.483487        -0.705074
 C         0.396650         1.400981        -1.679086
 C         1.225657         2.214700        -2.653069
 O         2.207006         3.205693        -1.951144
 C         2.686145         2.043605        -2.674531
 C         3.281281         0.831383        -2.031196
 C         2.628367         0.354168        -0.693285
 O         1.997262         1.187590         0.144292
 H         0.559505        -0.747399         0.971409
 H        -0.770803         0.135618         0.192184
 H        -0.136516        -1.197432        -0.560237
 H        -0.360703         0.919760        -2.227759
 H        -0.139119         2.105965        -1.026184
 H         0.656967         2.666100        -3.543234
 H         3.138432         2.439339        -3.647346
 H         3.070372         0.072416        -2.785145
 H         4.407269         0.902280        -2.116212
 H         3.199685        -0.434497        -0.161638
