19
Iteration:  4545
 C         0.160087        -0.539470        -0.344193
 C         1.080833         0.585103        -0.678770
 C         0.463869         1.612893        -1.575289
 C         1.307083         1.862652        -2.740543
 O         2.097547         3.039320        -2.686275
 C         2.802212         1.834146        -2.718331
 C         3.405450         1.437695        -1.337365
 C         2.562782         0.423740        -0.619760
 O         1.806632         1.087417         0.486468
 H         0.396995        -1.474219        -0.938819
 H        -0.143155        -0.646473         0.721790
 H        -0.885752        -0.315639        -0.904115
 H        -0.616768         1.150029        -1.852074
 H         0.325742         2.467332        -1.022035
 H         0.856186         1.587760        -3.750136
 H         3.331829         1.680674        -3.732834
 H         4.412736         1.187107        -1.457560
 H         3.414513         2.359463        -0.786953
 H         3.093663        -0.487008        -0.300266
