19
Iteration:  4064
 C         0.320484        -0.651567        -0.233134
 C         1.062668         0.575251        -0.721961
 C         0.373124         1.508161        -1.710006
 C         1.272152         2.031845        -2.837452
 O         2.212957         3.081305        -2.449989
 C         2.740022         1.736808        -2.733875
 C         3.414228         1.268210        -1.457003
 C         2.554650         0.479806        -0.506571
 O         1.669919         1.294604         0.365505
 H        -0.028392        -1.264601        -1.122512
 H         1.082208        -1.350389         0.328140
 H        -0.556646        -0.440339         0.471392
 H        -0.526744         1.083381        -2.053268
 H         0.027324         2.488127        -1.116472
 H         0.760733         2.042686        -3.789866
 H         3.325699         1.544733        -3.633120
 H         4.363826         0.799189        -1.824376
 H         3.798916         2.202259        -1.005600
 H         2.813280        -0.354759         0.105538
