19
Iteration:  4192
 C         0.256411        -0.652616        -0.184452
 C         1.058508         0.512976        -0.638686
 C         0.451183         1.517594        -1.727195
 C         1.350983         2.013208        -2.889864
 O         2.117399         3.219956        -2.695434
 C         2.816004         1.919409        -2.634498
 C         3.422945         1.176852        -1.430330
 C         2.486470         0.435354        -0.479916
 O         1.667525         1.223789         0.465566
 H         0.057534        -1.385220        -1.015876
 H         0.843503        -1.199222         0.620178
 H        -0.620171        -0.334083         0.240345
 H        -0.383713         0.986943        -2.217742
 H        -0.026245         2.327671        -1.158450
 H         0.994100         1.747273        -3.926688
 H         3.490983         1.933822        -3.465198
 H         4.062512         0.396765        -1.912449
 H         4.075879         1.979997        -1.063960
 H         2.867369        -0.473772         0.004754
