19
Iteration:  1115
 C         0.145039        -0.547374        -0.209954
 C         1.113530         0.632301        -0.632683
 C         0.333617         1.486107        -1.557175
 C         1.177230         2.252805        -2.592048
 O         2.254603         3.120475        -2.133426
 C         2.636983         1.896654        -2.867951
 C         3.388708         0.884915        -1.876924
 C         2.546562         0.402477        -0.708587
 O         2.030025         1.240977         0.330360
 H         0.524808        -1.301260         0.458536
 H        -0.689200        -0.171841         0.367959
 H        -0.228456        -0.996653        -1.140576
 H        -0.301471         0.799193        -2.289005
 H        -0.516362         2.031318        -1.069348
 H         0.626949         2.691410        -3.435994
 H         3.102897         2.144657        -3.784226
 H         3.867535         0.089251        -2.441956
 H         4.150580         1.573308        -1.475717
 H         2.860479        -0.587084        -0.373617
