19
Iteration:   828
 C         0.164639        -0.279782         0.133520
 C         1.059998         0.591053        -0.710329
 C         0.276349         1.394504        -1.764954
 C         1.179361         2.313182        -2.580774
 O         2.148103         3.136786        -1.909035
 C         2.688124         2.018562        -2.723678
 C         3.458032         0.952515        -1.920304
 C         2.510799         0.171735        -0.933403
 O         2.093079         1.067988         0.091579
 H        -0.217190         0.336987         0.949453
 H        -0.518466        -0.833647        -0.495658
 H         0.698299        -1.197539         0.644113
 H        -0.100386         0.613076        -2.430172
 H        -0.598653         1.933049        -1.516470
 H         0.565434         2.755874        -3.449965
 H         3.248719         2.493349        -3.566308
 H         3.876632         0.200786        -2.611369
 H         4.291931         1.427609        -1.300831
 H         2.893099        -0.803938        -0.527688
