19
Iteration:   129charge 0 multiplicity 1
 C         0.080939        -0.406219        -0.132304
 C         1.061894         0.582471        -0.642693
 C         0.436589         1.702058        -1.563433
 C         1.253891         2.121715        -2.673665
 O         2.061862         3.187867        -2.227238
 C         2.674862         1.904149        -2.708334
 C         3.388287         1.087931        -1.754476
 C         2.540106         0.228259        -0.832448
 O         2.134244         0.954662         0.285294
 H         0.558088        -1.259867         0.179912
 H        -0.300217         0.098265         0.784225
 H        -0.721520        -0.842410        -0.899455
 H        -0.413808         1.104357        -2.074123
 H        -0.052144         2.535854        -1.087445
 H         0.761409         2.125848        -3.619459
 H         3.034092         2.154419        -3.704973
 H         3.969010         0.412955        -2.504462
 H         4.060542         1.709567        -1.168861
 H         2.776629        -0.823546        -0.528889
