19
Iteration:  3750charge 0 multiplicity 1
 C         0.200975        -0.730441        -0.323923
 C         1.055387         0.560953        -0.644221
 C         0.462789         1.542723        -1.659067
 C         1.326087         1.929499        -2.775286
 O         2.202708         3.035623        -2.524847
 C         2.736132         1.814392        -2.758596
 C         3.379996         1.296424        -1.429512
 C         2.476299         0.550585        -0.555278
 O         1.771472         1.326244         0.412128
 H        -0.233746        -1.161303        -1.204199
 H         0.888475        -1.498959         0.230502
 H        -0.644883        -0.377834         0.358796
 H        -0.416373         1.142407        -2.033327
 H        -0.014713         2.477163        -1.190890
 H         0.854953         2.074628        -3.719407
 H         3.396732         1.613443        -3.610571
 H         4.218338         0.593364        -1.588017
 H         3.830296         2.243384        -1.024998
 H         2.919434        -0.319252        -0.054753
