19
Iteration:  3863charge 0 multiplicity 1
 C         0.275340        -0.462174        -0.108059
 C         1.073585         0.622640        -0.749206
 C         0.306189         1.365257        -1.828354
 C         1.341669         1.984678        -2.813726
 O         2.071835         3.082053        -2.303472
 C         2.811730         1.835035        -2.693841
 C         3.527863         1.161857        -1.470398
 C         2.484598         0.382610        -0.581678
 O         1.747190         1.333300         0.269126
 H         0.080082        -1.338816        -0.891111
 H         0.887990        -0.883491         0.665115
 H        -0.744884        -0.160852         0.229789
 H        -0.307993         0.672926        -2.342749
 H        -0.387724         2.175439        -1.325359
 H         0.995121         1.999087        -3.884070
 H         3.353492         2.186895        -3.552760
 H         4.424631         0.548076        -1.749705
 H         3.894842         2.046721        -0.944534
 H         2.881442        -0.423378        -0.101301
