19
Iteration:  3655
 C         0.188694        -0.431841        -0.150850
 C         1.071869         0.554435        -0.752032
 C         0.349176         1.201774        -1.900040
 C         1.342182         1.989258        -2.682286
 O         2.103141         3.103942        -2.210526
 C         2.779784         1.841209        -2.623635
 C         3.477552         1.118321        -1.508035
 C         2.537333         0.525520        -0.598365
 O         1.791858         1.399297         0.161063
 H         0.062109        -1.350703        -0.708411
 H         0.575481        -0.610560         0.908184
 H        -0.776287         0.068388        -0.099422
 H        -0.379264         0.530420        -2.474820
 H        -0.368834         1.831369        -1.471990
 H         0.860861         2.126945        -3.688520
 H         3.438060         2.149495        -3.448321
 H         4.083199         0.344068        -2.005126
 H         4.168137         1.708104        -0.939107
 H         3.093942        -0.282923        -0.086907
