19
Iteration:  4730
 C         0.142005        -0.591499        -0.360996
 C         1.037775         0.605314        -0.550425
 C         0.400987         1.510965        -1.602258
 C         1.342296         1.958269        -2.738323
 O         2.202175         3.080950        -2.677841
 C         2.788392         1.767377        -2.706989
 C         3.389338         1.440641        -1.390208
 C         2.524054         0.439679        -0.660054
 O         1.810303         1.152684         0.493808
 H         0.055283        -1.356506        -1.261140
 H         0.550961        -1.086947         0.558330
 H        -0.848014        -0.242157        -0.133707
 H        -0.415585         0.908608        -2.168807
 H         0.032944         2.434554        -1.164730
 H         0.828139         1.692173        -3.782215
 H         3.346116         1.652093        -3.668173
 H         4.426427         1.037379        -1.491235
 H         3.445055         2.363448        -0.785579
 H         2.922015        -0.565463        -0.435680
