19
Iteration:  1925charge 0 multiplicity 1
 C         0.238440        -0.505730        -0.193874
 C         1.065796         0.541736        -0.678462
 C         0.421500         1.398130        -1.781379
 C         1.326350         1.917115        -2.881956
 O         2.061786         3.064884        -2.368634
 C         2.801648         1.858078        -2.745856
 C         3.486673         1.228809        -1.456117
 C         2.535239         0.404023        -0.553750
 O         1.745756         1.364946         0.351983
 H         0.151114        -1.433197        -0.795998
 H         0.502016        -0.652036         0.917619
 H        -0.841079        -0.206130        -0.060189
 H        -0.442608         0.766214        -2.237885
 H        -0.127780         2.230888        -1.276875
 H         0.897813         2.147668        -3.794803
 H         3.323876         1.957944        -3.625387
 H         4.359894         0.639410        -1.777806
 H         3.790569         2.166213        -0.947073
 H         2.994000        -0.455297        -0.029466
