19
Iteration:   475
 C         0.186477        -0.348703        -0.040628
 C         1.147235         0.611321        -0.644966
 C         0.387071         1.561603        -1.651447
 C         1.214289         2.270129        -2.718144
 O         2.125728         3.230900        -2.161172
 C         2.606227         2.004280        -2.693687
 C         3.381856         0.959863        -1.925946
 C         2.455424         0.219097        -0.871782
 O         2.097989         0.875768         0.411766
 H        -0.483053         0.281220         0.791178
 H        -0.561911        -0.937500        -0.757237
 H         0.753845        -0.955286         0.625814
 H        -0.243501         0.893737        -2.264750
 H        -0.351233         2.200255        -1.159527
 H         0.700947         2.418771        -3.704054
 H         3.068240         2.155446        -3.757794
 H         3.986935         0.428247        -2.653684
 H         4.219743         1.404240        -1.306112
 H         2.834789        -0.786377        -0.642711
