19
Iteration:  2380charge 0 multiplicity 1
 C         0.144114        -0.486235         0.034443
 C         0.994778         0.543066        -0.682429
 C         0.474816         1.223930        -1.879500
 C         1.373410         1.938343        -2.847164
 O         2.080294         3.196791        -2.307117
 C         2.845455         2.072786        -2.634976
 C         3.489480         1.055604        -1.582175
 C         2.516418         0.474347        -0.618791
 O         1.728076         1.332014         0.271690
 H         0.053516        -1.495252        -0.549434
 H         0.675695        -0.655216         0.909704
 H        -0.878881        -0.016357         0.265734
 H        -0.125071         0.403997        -2.472880
 H        -0.330443         1.923807        -1.668359
 H         1.016962         2.000808        -3.965159
 H         3.366576         2.134733        -3.614060
 H         4.081412         0.320527        -2.169349
 H         4.116075         1.596604        -0.880205
 H         3.061797        -0.380894        -0.148644
