19
Iteration:  2628charge 0 multiplicity 1
 C         0.246186        -0.471459         0.018068
 C         1.068361         0.572459        -0.735533
 C         0.450518         1.024789        -2.040274
 C         1.302252         2.126385        -2.680420
 O         2.162076         3.045768        -2.073158
 C         2.750128         1.937850        -2.693741
 C         3.446976         1.015451        -1.656991
 C         2.501362         0.553375        -0.605282
 O         1.698256         1.572037         0.170101
 H        -0.152734        -1.223009        -0.774465
 H         0.912896        -0.894778         0.788403
 H        -0.693540        -0.043474         0.470774
 H         0.216672         0.164492        -2.719650
 H        -0.583303         1.382030        -1.749582
 H         0.767255         2.435976        -3.543358
 H         3.506520         2.120586        -3.484526
 H         3.906266         0.126982        -2.081351
 H         4.388476         1.423133        -1.114736
 H         2.810475        -0.321301         0.002246
