19
Iteration:  3723charge 0 multiplicity 1
 C         0.198260        -0.629808        -0.211502
 C         1.094616         0.549725        -0.630884
 C         0.370746         1.423453        -1.673406
 C         1.315863         2.026781        -2.771614
 O         2.165309         3.260038        -2.734283
 C         2.767741         1.936444        -2.668545
 C         3.551588         1.157228        -1.448522
 C         2.550673         0.455585        -0.482954
 O         1.644291         1.207235         0.439850
 H        -0.242217        -1.214165        -1.069071
 H         0.754376        -1.269820         0.377603
 H        -0.615314        -0.254713         0.341669
 H        -0.427808         0.809350        -2.311990
 H        -0.188362         2.198495        -1.234547
 H         0.858858         2.010408        -3.822898
 H         3.358372         1.619009        -3.531059
 H         4.183086         0.340757        -1.858823
 H         4.259289         1.892613        -1.048037
 H         2.946562        -0.485084         0.124931
