19
Iteration:   565
 C         0.365777        -0.619820        -0.021711
 C         1.031805         0.680598        -0.595126
 C         0.392010         1.467935        -1.787712
 C         1.239038         2.431194        -2.605823
 O         2.286586         3.062091        -1.904837
 C         2.667948         1.982927        -2.750859
 C         3.223879         0.732625        -2.088997
 C         2.398486         0.359144        -0.786607
 O         1.953768         1.324709         0.253272
 H        -0.693253        -0.450042         0.158085
 H         0.495768        -1.547785        -0.702242
 H         0.804415        -0.842846         1.059968
 H        -0.268825         0.864788        -2.308336
 H        -0.273023         2.147725        -1.298779
 H         0.787244         3.013905        -3.430313
 H         3.280308         2.191993        -3.710298
 H         3.162265        -0.107537        -2.742441
 H         4.322134         0.853692        -1.963266
 H         2.754305        -0.572319        -0.369058
