19
Iteration:  2771
 C         0.223174        -0.656431        -0.241686
 C         1.019640         0.520350        -0.686642
 C         0.427107         1.539185        -1.658513
 C         1.332272         1.956812        -2.826139
 O         2.090929         3.150975        -2.601253
 C         2.770227         1.866225        -2.661494
 C         3.422532         1.234547        -1.489839
 C         2.535443         0.487271        -0.473054
 O         1.794004         1.277461         0.408084
 H         0.297115        -1.419563        -1.090730
 H         0.604178        -0.954723         0.659790
 H        -0.881491        -0.552380        -0.180243
 H        -0.525760         0.936514        -2.015415
 H         0.128244         2.449288        -1.099357
 H         0.966638         1.742550        -3.797558
 H         3.384364         1.756669        -3.568097
 H         4.060271         0.462510        -1.861431
 H         4.142643         1.908648        -0.884766
 H         2.933986        -0.406389        -0.015132
