19
Iteration:  4428
 C         0.202290        -0.620948        -0.233786
 C         1.129604         0.605999        -0.711078
 C         0.376710         1.355117        -1.813877
 C         1.271235         2.011206        -2.831676
 O         2.163880         3.118418        -2.395349
 C         2.747293         1.834964        -2.647069
 C         3.484388         1.171165        -1.514052
 C         2.588142         0.520868        -0.494460
 O         1.695493         1.345969         0.383244
 H        -0.212907        -1.180255        -1.042880
 H         0.677019        -1.259091         0.450824
 H        -0.681428        -0.234368         0.386372
 H        -0.245341         0.654806        -2.335799
 H        -0.356166         2.270063        -1.542823
 H         0.831996         2.163612        -3.800419
 H         3.492324         1.974016        -3.478233
 H         4.100184         0.299761        -1.949981
 H         4.237589         1.868720        -0.981807
 H         2.847224        -0.375581         0.053806
