19
Iteration:  2362
 C         0.223769        -0.458347        -0.095538
 C         1.070504         0.575111        -0.745630
 C         0.362174         1.229574        -1.950613
 C         1.351529         2.003032        -2.805510
 O         2.031082         3.035191        -2.170453
 C         2.822427         1.854150        -2.641835
 C         3.443632         1.141946        -1.578397
 C         2.539000         0.482173        -0.527343
 O         1.806028         1.447287         0.227290
 H         0.369842        -1.370289        -0.623537
 H         0.425336        -0.622057         1.045888
 H        -0.763018         0.001442        -0.092259
 H        -0.208104         0.527938        -2.530146
 H        -0.363211         1.931149        -1.560998
 H         0.981616         2.263017        -3.755943
 H         3.515039         2.274162        -3.365640
 H         3.776950         0.265613        -2.148398
 H         4.369437         1.592287        -1.166427
 H         2.780637        -0.364232         0.040270
