19
Iteration:  1237
 C         0.077992        -0.328118         0.058096
 C         1.075670         0.489686        -0.727571
 C         0.386127         1.279304        -1.790887
 C         1.215308         2.300294        -2.641405
 O         2.158853         3.110778        -1.963967
 C         2.689465         2.002434        -2.763779
 C         3.418485         0.914853        -1.941281
 C         2.565308         0.356332        -0.776787
 O         2.038793         1.228565         0.239550
 H        -0.552186        -1.047758        -0.602016
 H         0.608848        -1.008552         0.842504
 H        -0.698041         0.335675         0.486804
 H        -0.044702         0.524439        -2.599539
 H        -0.428595         1.826712        -1.262741
 H         0.744826         2.681374        -3.510995
 H         3.136985         2.358848        -3.658140
 H         3.685345         0.059929        -2.523766
 H         4.299466         1.428775        -1.548338
 H         2.993540        -0.618406        -0.408227
