19
Iteration:  1739
 C         0.169212        -0.419286         0.076383
 C         1.026664         0.522389        -0.769105
 C         0.402295         1.182042        -1.987809
 C         1.335549         2.012590        -2.812904
 O         2.021644         3.019356        -2.069108
 C         2.777747         1.920166        -2.621433
 C         3.532663         1.114468        -1.593225
 C         2.532562         0.490111        -0.628775
 O         1.838550         1.453177         0.119794
 H         0.679121        -1.425006         0.203517
 H        -0.057965         0.196080         0.945757
 H        -0.811219        -0.722713        -0.415838
 H         0.166046         0.267155        -2.636410
 H        -0.504659         1.694274        -1.890451
 H         0.858163         2.412228        -3.764979
 H         3.385267         2.281308        -3.459007
 H         4.272500         0.483259        -2.078542
 H         4.061032         1.884945        -1.011723
 H         2.902902        -0.353174        -0.047179
