19
Iteration:  4660charge 0 multiplicity 1
 C         0.162300        -0.671195        -0.413461
 C         1.021627         0.626885        -0.607386
 C         0.434018         1.579724        -1.539990
 C         1.394532         1.895226        -2.756619
 O         2.076441         3.091395        -2.783199
 C         2.883576         1.824536        -2.693194
 C         3.411150         1.396708        -1.436282
 C         2.508535         0.453890        -0.551891
 O         1.747851         1.134627         0.539610
 H        -0.666232        -0.649846        -1.144174
 H         0.808338        -1.620889        -0.395288
 H        -0.340734        -0.439291         0.604434
 H        -0.441590         1.181675        -1.903651
 H         0.304146         2.577003        -0.948925
 H         0.923930         1.754802        -3.729772
 H         3.493999         1.667984        -3.552580
 H         4.433455         0.884470        -1.560922
 H         3.640450         2.328505        -0.829362
 H         2.900021        -0.428847        -0.051662
