19
Iteration:  3220charge 0 multiplicity 1
 C         0.221993        -0.670937        -0.365712
 C         1.055135         0.571369        -0.634208
 C         0.540497         1.799089        -1.543605
 C         1.235361         1.936153        -2.916879
 O         2.183797         3.017234        -2.867490
 C         2.759286         1.768922        -2.715845
 C         3.292325         1.561060        -1.248563
 C         2.542440         0.433017        -0.549015
 O         1.778266         0.980990         0.559868
 H         0.352549        -1.459413        -1.140957
 H         0.525156        -1.178458         0.629645
 H        -0.796810        -0.439981        -0.373911
 H        -0.526761         1.476227        -1.567412
 H         0.744416         2.803231        -0.942984
 H         0.722560         1.782245        -3.875387
 H         3.490881         1.306313        -3.352553
 H         4.273250         1.159998        -1.306368
 H         3.104371         2.410121        -0.606561
 H         2.989559        -0.479000        -0.256832
