19
Iteration:  1472charge 0 multiplicity 1
 C         0.245022        -0.540499         0.090811
 C         1.008944         0.593459        -0.665194
 C         0.420440         1.244065        -1.896280
 C         1.331067         2.099590        -2.736062
 O         2.192298         3.140752        -2.053532
 C         2.771522         2.017670        -2.656573
 C         3.349454         0.939321        -1.840836
 C         2.477109         0.428754        -0.657487
 O         1.824268         1.451997         0.191851
 H         0.628015        -1.382886        -0.409930
 H         0.284584        -0.548029         1.139209
 H        -0.917966        -0.608881        -0.125258
 H         0.003103         0.467977        -2.637396
 H        -0.466059         1.784178        -1.710708
 H         0.971603         2.393729        -3.723953
 H         3.367197         2.253839        -3.608520
 H         3.587412         0.166863        -2.549862
 H         4.277668         1.333393        -1.425697
 H         2.796570        -0.571957        -0.198801
