19
Iteration:  2167charge 0 multiplicity 1
 C         0.340450        -0.720941        -0.028830
 C         0.917577         0.570773        -0.636577
 C         0.379163         1.318609        -1.845525
 C         1.380252         2.121424        -2.770983
 O         2.277168         3.212719        -2.407763
 C         2.797808         1.820038        -2.729281
 C         3.409901         1.117925        -1.567971
 C         2.401931         0.543320        -0.548920
 O         1.684572         1.383358         0.283076
 H         0.436846        -1.545567        -0.663122
 H         0.919896        -1.070937         0.914793
 H        -0.701235        -0.633789        -0.025850
 H        -0.301539         0.785538        -2.422744
 H        -0.234226         2.152323        -1.406725
 H         0.986828         2.248988        -3.722798
 H         3.247918         1.785593        -3.688147
 H         4.093594         0.295886        -1.780775
 H         3.968944         1.846651        -0.947120
 H         2.705032        -0.495714        -0.116444
