19
Iteration:   524charge 0 multiplicity 1
 C         0.090889        -0.474530         0.037436
 C         1.114395         0.501593        -0.713456
 C         0.316153         1.467678        -1.593051
 C         1.224024         2.268481        -2.494439
 O         2.255420         3.180309        -1.997820
 C         2.678952         1.994361        -2.715059
 C         3.431245         0.872392        -1.991769
 C         2.538481         0.246583        -0.933738
 O         1.969633         1.260041         0.101557
 H        -0.871481        -0.122413         0.022365
 H         0.114350        -1.457592        -0.375202
 H         0.349013        -0.479515         1.201448
 H        -0.260720         0.935170        -2.346497
 H        -0.096432         2.223712        -0.847561
 H         0.645425         2.702546        -3.316472
 H         3.036881         2.307249        -3.714081
 H         3.619772         0.069048        -2.805769
 H         4.355619         1.198548        -1.487417
 H         2.825748        -0.791946        -0.526896
