19
Iteration:  3767
 C         0.306020        -0.574746        -0.311471
 C         1.035745         0.650342        -0.637229
 C         0.373767         1.553122        -1.627719
 C         1.291903         1.863418        -2.825927
 O         2.157339         3.025455        -2.434207
 C         2.819298         1.738222        -2.770694
 C         3.487905         1.307825        -1.511363
 C         2.477755         0.522026        -0.575653
 O         1.672392         1.251799         0.440706
 H         0.036348        -1.093787        -1.272708
 H         0.923372        -1.218071         0.195464
 H        -0.620691        -0.478185         0.191369
 H        -0.694295         1.230697        -2.053244
 H         0.325307         2.496311        -1.122135
 H         0.793249         1.842780        -3.869680
 H         3.441407         1.714782        -3.698828
 H         4.462671         0.820864        -1.626991
 H         3.685956         2.172664        -0.884530
 H         2.894301        -0.502754        -0.227455
