19
Iteration:  3255charge 0 multiplicity 1
 C         0.216267        -0.624737        -0.566799
 C         1.071170         0.638778        -0.567404
 C         0.473417         1.691609        -1.383670
 C         1.273231         1.808513        -2.676068
 O         2.187689         3.039652        -2.991496
 C         2.866261         1.778464        -2.707998
 C         3.378630         1.513244        -1.326350
 C         2.474262         0.565448        -0.542361
 O         1.707200         1.019834         0.607039
 H         0.167691        -1.022576        -1.579911
 H         0.686960        -1.392737         0.095940
 H        -0.718303        -0.464198        -0.173181
 H        -0.578123         1.258958        -1.662105
 H         0.101950         2.587914        -0.854299
 H         0.776454         1.540483        -3.599291
 H         3.123558         1.195559        -3.618351
 H         4.309947         1.043837        -1.500597
 H         3.815618         2.406408        -0.828105
 H         2.994174        -0.418839        -0.274860
