19
Iteration:   641
 C         0.142179        -0.359331         0.096372
 C         1.038961         0.531226        -0.717032
 C         0.314752         1.516278        -1.676386
 C         1.198811         2.148342        -2.683845
 O         2.186121         3.193451        -2.068643
 C         2.712631         1.997386        -2.662041
 C         3.427478         1.037276        -1.839568
 C         2.450636         0.260227        -0.995265
 O         2.083028         1.026998         0.241357
 H        -0.240799         0.076897         0.968259
 H        -0.563917        -0.811393        -0.609118
 H         0.687624        -1.166670         0.385728
 H        -0.473174         0.935703        -2.242871
 H        -0.063184         2.307173        -1.065246
 H         0.812520         2.535823        -3.644889
 H         3.284286         2.064799        -3.642997
 H         3.879732         0.365060        -2.525605
 H         4.196586         1.498864        -1.179050
 H         2.793731        -0.767629        -0.857115
