19
Iteration:   381
 C         0.292949        -0.538219        -0.191165
 C         1.070708         0.687138        -0.532846
 C         0.354594         1.516003        -1.623586
 C         1.237593         2.314710        -2.632101
 O         2.276430         3.181701        -2.138694
 C         2.597299         1.912276        -2.822623
 C         3.261973         0.881960        -1.894376
 C         2.442854         0.299347        -0.729676
 O         2.034566         1.176855         0.371759
 H         0.790476        -1.134227         0.458552
 H        -0.664191        -0.344583         0.217267
 H         0.272507        -1.188105        -1.129748
 H        -0.163608         0.725277        -2.276013
 H        -0.422262         2.245098        -1.294320
 H         0.655818         2.609245        -3.473415
 H         2.913947         1.997700        -3.823643
 H         3.457842        -0.000357        -2.551544
 H         4.238896         1.250696        -1.666553
 H         2.897158        -0.620968        -0.443856
