19
Iteration:    63
 C         0.143278        -0.644115        -0.166212
 C         1.068452         0.487622        -0.653637
 C         0.359645         1.574338        -1.453169
 C         1.171991         2.283857        -2.565076
 O         2.315002         3.246878        -2.298352
 C         2.662786         1.943123        -2.857004
 C         3.362134         0.935166        -1.897131
 C         2.559057         0.318524        -0.706552
 O         1.943797         1.198828         0.336902
 H         0.455285        -1.132292         0.701913
 H        -0.747194        -0.089438         0.186967
 H        -0.043498        -1.512648        -0.926502
 H        -0.608753         1.241743        -1.941828
 H         0.204045         2.325710        -0.696139
 H         0.680717         2.656155        -3.459102
 H         2.994936         1.989629        -3.964692
 H         3.756870         0.031285        -2.511262
 H         4.301764         1.377596        -1.538387
 H         2.984282        -0.649566        -0.267024
