19
Iteration:  3378charge 0 multiplicity 1
 C         0.104054        -0.600819        -0.320455
 C         1.088253         0.476675        -0.671296
 C         0.608132         1.695310        -1.524847
 C         1.347660         1.906479        -2.867408
 O         2.068263         3.064631        -2.800092
 C         2.828198         1.778677        -2.709008
 C         3.304704         1.489846        -1.326328
 C         2.499649         0.453357        -0.537019
 O         1.813877         1.034643         0.505371
 H        -0.000564        -1.268130        -1.137019
 H         0.462473        -1.044569         0.524404
 H        -0.904764        -0.214936        -0.135304
 H        -0.518663         1.591780        -1.896786
 H         0.721769         2.517362        -0.873060
 H         0.826596         1.796051        -3.826327
 H         3.445632         1.491880        -3.559481
 H         4.389101         1.421265        -1.305032
 H         3.045360         2.393183        -0.775080
 H         3.088742        -0.533556        -0.222547
