19
Iteration:   897
 C         0.118841        -0.383444        -0.001228
 C         1.123875         0.490467        -0.683026
 C         0.381298         1.315544        -1.745389
 C         1.200764         2.246127        -2.526385
 O         2.283018         3.213669        -1.882066
 C         2.605640         2.054737        -2.779929
 C         3.257782         0.845349        -2.056348
 C         2.554986         0.300513        -0.803577
 O         2.060101         1.245556         0.158356
 H        -0.328831         0.161250         0.790386
 H        -0.555577        -0.881647        -0.658642
 H         0.612972        -1.224343         0.568541
 H        -0.190519         0.767351        -2.481250
 H        -0.375393         1.795498        -1.192787
 H         0.666637         2.800075        -3.315096
 H         3.093429         2.471954        -3.776675
 H         3.512968        -0.068276        -2.619995
 H         4.221306         1.216536        -1.615457
 H         2.985834        -0.666605        -0.348532
