19
Iteration:  1397
 C         0.196880        -0.551309         0.072749
 C         0.954922         0.554641        -0.683111
 C         0.373920         1.461265        -1.766101
 C         1.311669         2.062269        -2.760720
 O         2.128856         3.152646        -2.253480
 C         2.834039         2.003378        -2.699052
 C         3.464378         1.075951        -1.684045
 C         2.433146         0.308427        -0.781841
 O         1.899736         1.261891         0.258267
 H         0.905382        -0.981940         0.767526
 H        -0.595177        -0.205462         0.579975
 H        -0.124812        -1.422081        -0.627907
 H        -0.522701         1.092958        -2.315895
 H        -0.140823         2.286003        -1.191699
 H         0.925044         2.309966        -3.814627
 H         3.210958         1.954621        -3.814455
 H         4.223792         0.411606        -2.225723
 H         4.048070         1.675432        -0.930183
 H         2.823846        -0.580132        -0.267337
