19
Iteration:   329charge 0 multiplicity 1
 C         0.160808        -0.324704         0.147916
 C         1.052682         0.418148        -0.823056
 C         0.386907         1.448018        -1.663185
 C         1.245193         2.254114        -2.644789
 O         2.144069         3.118283        -2.012643
 C         2.731523         2.023489        -2.703040
 C         3.424618         0.949709        -1.872911
 C         2.544983         0.262628        -0.839207
 O         1.930092         1.145029         0.073627
 H         0.749010        -1.342870         0.442144
 H        -0.057570         0.213046         1.045810
 H        -0.890156        -0.669085        -0.359089
 H        -0.447212         0.968284        -2.307840
 H        -0.152823         2.205925        -1.098282
 H         0.607492         2.706695        -3.319806
 H         3.236810         2.396975        -3.543710
 H         3.944610         0.248675        -2.552767
 H         4.278290         1.461725        -1.447711
 H         3.026783        -0.639488        -0.445358
