19
Iteration:  4499
 C         0.298581        -0.661449        -0.272346
 C         1.062082         0.538513        -0.655770
 C         0.454242         1.646252        -1.574717
 C         1.347036         1.985839        -2.798839
 O         2.205263         3.192026        -2.794161
 C         2.809236         1.885392        -2.714258
 C         3.370202         1.291795        -1.443300
 C         2.499187         0.419760        -0.511765
 O         1.631068         1.089862         0.508505
 H         0.563838        -1.773876        -0.510590
 H         0.213694        -0.523801         0.913357
 H        -0.754506        -0.733286        -0.417770
 H        -0.477483         1.140387        -2.128129
 H         0.053525         2.399863        -0.887581
 H         0.691712         1.903426        -3.726380
 H         3.327667         1.697520        -3.637909
 H         4.223625         0.674763        -1.667625
 H         3.786509         2.128254        -0.920332
 H         2.940267        -0.548365        -0.192764
