19
Iteration:    59
 C         0.158555        -0.601401        -0.218623
 C         1.097256         0.518908        -0.666552
 C         0.316393         1.581313        -1.456600
 C         1.185903         2.252615        -2.573026
 O         2.285511         3.221390        -2.269973
 C         2.676801         1.949068        -2.851735
 C         3.353505         0.886698        -1.920709
 C         2.577569         0.302040        -0.692146
 O         1.953497         1.208017         0.356320
 H         0.531132        -1.169085         0.796306
 H        -0.778178        -0.090192         0.125382
 H         0.051550        -1.389581        -0.916178
 H        -0.623572         1.224324        -1.869419
 H         0.121496         2.408283        -0.656201
 H         0.689093         2.621877        -3.514136
 H         2.918590         2.081263        -3.878925
 H         3.719517         0.096168        -2.533329
 H         4.272343         1.418583        -1.534513
 H         2.930196        -0.594246        -0.233187
