19
Iteration:  3557charge 0 multiplicity 1
 C         0.069899        -0.422826        -0.024479
 C         1.081615         0.464774        -0.783657
 C         0.425817         1.140730        -1.952769
 C         1.336390         2.019906        -2.786148
 O         2.054677         3.046680        -2.073508
 C         2.814879         1.978801        -2.595881
 C         3.515007         1.099355        -1.586098
 C         2.571420         0.483847        -0.599890
 O         1.808601         1.487934         0.085128
 H        -0.260169        -1.258423        -0.572799
 H         0.565580        -0.817975         0.900942
 H        -0.743173         0.169874         0.278363
 H        -0.128798         0.329452        -2.456132
 H        -0.505402         1.724454        -1.475827
 H         0.781613         2.342134        -3.723520
 H         3.389860         2.133504        -3.543153
 H         4.109674         0.266339        -2.036581
 H         4.206951         1.843630        -1.179350
 H         3.029300        -0.310183         0.178654
