19
Iteration:  4004
 C         0.107720        -0.532519         0.005256
 C         1.104412         0.468955        -0.730028
 C         0.485389         1.283232        -1.900096
 C         1.379559         2.017920        -2.893205
 O         1.988312         3.166579        -2.338898
 C         2.845804         2.025567        -2.638489
 C         3.447927         1.107855        -1.611012
 C         2.527953         0.478229        -0.499853
 O         1.772998         1.314477         0.343505
 H        -0.046442        -1.521758        -0.507828
 H         0.396466        -0.664161         0.990229
 H        -0.881188        -0.067852        -0.067400
 H        -0.208139         0.493244        -2.381476
 H        -0.128196         2.124140        -1.467991
 H         1.073377         2.240089        -3.950020
 H         3.601770         2.184638        -3.466354
 H         3.729782         0.196784        -2.178982
 H         4.376860         1.590737        -1.216540
 H         3.151893        -0.311631        -0.004531
