19
Iteration:    28charge 0 multiplicity 1
 C         0.243087        -0.524979        -0.267381
 C         1.115115         0.780256        -0.578346
 C         0.318958         1.599018        -1.647075
 C         1.248754         2.207256        -2.732564
 O         2.101497         3.016180        -2.002327
 C         2.613436         1.886790        -2.735126
 C         3.349795         0.870913        -1.842455
 C         2.450103         0.374524        -0.781460
 O         2.203647         1.210377         0.331178
 H         0.762155        -1.124660         0.592619
 H        -0.803892        -0.239682         0.053845
 H        -0.005043        -1.146141        -1.156288
 H        -0.556515         0.942839        -1.872167
 H        -0.245792         2.502095        -1.205821
 H         0.680749         2.620941        -3.612763
 H         3.019761         2.190633        -3.735064
 H         3.362871        -0.030302        -2.523975
 H         4.401574         1.196326        -1.583235
 H         2.485093        -0.713626        -0.577721
