19
Iteration:  2621charge 0 multiplicity 1
 C         0.236319        -0.469673         0.032595
 C         1.027100         0.615812        -0.712233
 C         0.459684         0.988721        -2.066962
 C         1.293204         2.046166        -2.709446
 O         2.173759         3.136901        -2.084222
 C         2.783341         1.952819        -2.635717
 C         3.464339         1.023908        -1.677262
 C         2.461111         0.525764        -0.599854
 O         1.731309         1.527817         0.182346
 H         0.006195        -1.402110        -0.609875
 H         0.693535        -0.906962         0.881958
 H        -0.683577        -0.024844         0.458356
 H         0.266593         0.186719        -2.717138
 H        -0.523195         1.494317        -1.882827
 H         0.802973         2.544839        -3.611168
 H         3.310451         2.115143        -3.560897
 H         3.708466         0.095673        -2.285760
 H         4.336173         1.505569        -1.238987
 H         2.936052        -0.284693         0.039941
