19
Iteration:  3248charge 0 multiplicity 1
 C         0.240365        -0.634978        -0.526456
 C         0.975469         0.627245        -0.613573
 C         0.422346         1.711322        -1.429195
 C         1.304620         1.822471        -2.635229
 O         2.197256         3.077966        -2.998399
 C         2.792238         1.745262        -2.703062
 C         3.439680         1.527952        -1.315433
 C         2.483492         0.558557        -0.562088
 O         1.774507         1.007289         0.600995
 H         0.286540        -1.218250        -1.454865
 H         0.646295        -1.299201         0.160337
 H        -0.895649        -0.398781        -0.222639
 H        -0.492689         1.279620        -1.730896
 H         0.183311         2.592013        -0.910179
 H         0.840455         1.469425        -3.568692
 H         3.263078         1.101699        -3.485816
 H         4.472890         1.022008        -1.425421
 H         3.451550         2.464795        -0.690789
 H         2.836268        -0.526829        -0.288867
