19
Iteration:  4380
 C         0.167393        -0.478568         0.138036
 C         0.978298         0.498793        -0.688916
 C         0.429927         1.141258        -1.926057
 C         1.412998         2.016287        -2.819346
 O         2.106056         3.144765        -2.159758
 C         2.912894         2.091776        -2.605728
 C         3.502333         1.119650        -1.654894
 C         2.456045         0.433635        -0.705913
 O         1.677407         1.387053         0.140990
 H        -0.474235        -1.139500        -0.520112
 H         0.891429        -1.121256         0.737962
 H        -0.443143         0.001713         0.888307
 H         0.134703         0.376726        -2.769379
 H        -0.545997         1.632606        -1.769871
 H         1.119287         2.205784        -3.904295
 H         3.479675         2.248158        -3.529025
 H         3.994686         0.313034        -2.121515
 H         4.220839         1.569085        -0.974766
 H         2.800549        -0.313233         0.027930
