19
Iteration:  4159
 O        -1.033027         0.858925        -0.164688
 C        -1.739683         0.377909         1.042520
 C        -3.053091         0.956981         1.256013
 C        -2.837198        -0.457191         0.587037
 C        -3.271199        -1.642530         1.314595
 C        -2.328522        -2.060225         2.543871
 O        -1.061792        -2.514679         2.067675
 C        -1.074523        -1.288627         2.793652
 C        -0.673784         0.053324         2.121570
 H        -0.369678         1.389567         0.253130
 H        -3.525583         0.957460         2.234407
 H        -3.122572         1.870245         0.574747
 H        -2.869664        -0.496887        -0.505314
 H        -4.321463        -1.601044         1.555511
 H        -3.362291        -2.446238         0.466328
 H        -2.780667        -2.408434         3.563909
 H        -0.666506        -1.591640         3.752533
 H        -0.633479         0.746611         2.945484
 H         0.303379        -0.116305         1.612106
