19
Iteration:   570
 O        -0.983728         0.936394        -0.116647
 C        -1.699306         0.307460         0.944060
 C        -3.075071         0.857526         1.053670
 C        -2.839048        -0.629528         0.503524
 C        -3.320739        -1.772289         1.401511
 C        -2.321771        -2.023216         2.470571
 O        -0.850523        -2.289791         2.182768
 C        -1.211320        -1.152421         2.951630
 C        -0.798066         0.056644         2.138877
 H        -0.100463         1.037325         0.216459
 H        -3.668985         0.932248         1.971895
 H        -3.383358         1.474769         0.196991
 H        -2.966862        -0.785143        -0.606813
 H        -4.367037        -1.599610         1.648988
 H        -3.341617        -2.636345         0.723025
 H        -2.586585        -2.781581         3.305630
 H        -1.028756        -1.243834         3.998036
 H        -0.814099         0.857670         2.815853
 H         0.196897        -0.230764         1.921878
