19
Iteration:   113charge 0 multiplicity 1
 O        -0.847804         0.997191        -0.029148
 C        -1.720334         0.351159         0.949579
 C        -3.204001         0.710031         0.869523
 C        -2.865947        -0.620246         0.437395
 C        -3.178844        -1.701520         1.381243
 C        -2.278109        -2.087049         2.554198
 O        -0.911129        -2.370258         2.193172
 C        -1.195848        -1.122441         2.995882
 C        -0.907182         0.172717         2.205705
 H        -0.614384         0.293720        -0.696099
 H        -3.620731         0.826436         1.894807
 H        -3.310029         1.534237         0.074852
 H        -2.914915        -0.851782        -0.561609
 H        -4.139254        -1.426872         1.823095
 H        -3.359907        -2.601640         0.815509
 H        -2.608614        -2.760826         3.351615
 H        -0.960008        -1.315603         4.066291
 H        -0.830595         1.029909         2.875315
 H         0.114203        -0.087448         1.832024
