19
Iteration:  1816charge 0 multiplicity 1
 O        -0.908455         1.063607        -0.109090
 C        -1.706766         0.394692         0.802513
 C        -3.004114         0.895075         1.528668
 C        -3.024383        -0.317430         0.617953
 C        -3.063031        -1.727344         1.140357
 C        -2.417974        -1.945444         2.422887
 O        -1.030460        -2.540897         2.486114
 C        -1.262475        -1.201002         2.846367
 C        -0.650527        -0.278864         1.813406
 H        -1.045631         1.094899        -1.042720
 H        -3.003370         0.608096         2.572463
 H        -3.396821         1.746784         1.152190
 H        -3.480303        -0.279230        -0.347627
 H        -4.103140        -1.904434         1.448200
 H        -2.671645        -2.462338         0.419664
 H        -3.104127        -2.546974         3.073555
 H        -1.152383        -1.038187         3.916536
 H        -0.111090         0.560636         2.292630
 H         0.047825        -0.879320         1.247788
