19
Iteration:  2869
 O        -0.899508         1.062992        -0.074263
 C        -1.730559         0.358142         0.885380
 C        -2.961549         1.098726         1.260190
 C        -2.991530        -0.339055         0.580946
 C        -3.260560        -1.658741         1.381562
 C        -2.333527        -2.120582         2.534003
 O        -0.991743        -2.586963         2.144071
 C        -1.113516        -1.355113         2.855594
 C        -0.797747        -0.122978         1.994128
 H        -0.552352         0.492853        -0.749074
 H        -3.376802         0.995918         2.239036
 H        -3.382659         1.794486         0.519048
 H        -3.288781        -0.430523        -0.498401
 H        -4.223435        -1.583527         2.049094
 H        -3.236981        -2.548590         0.713752
 H        -2.898617        -2.623814         3.405489
 H        -0.654561        -1.225508         3.824555
 H        -0.627174         0.607569         2.816377
 H         0.175694        -0.323128         1.480365
