19
Iteration:  1031charge 0 multiplicity 1
 O        -1.112524         1.043317        -0.230705
 C        -1.653228         0.401832         0.920366
 C        -3.109910         0.773491         1.497672
 C        -2.896829        -0.412227         0.546832
 C        -2.889987        -1.830930         1.047794
 C        -2.381811        -1.863241         2.416290
 O        -1.216887        -2.536436         2.695365
 C        -1.199719        -1.150774         2.806455
 C        -0.561844        -0.182730         1.771892
 H        -1.071364         2.017442        -0.059768
 H        -3.207068         0.438760         2.541287
 H        -3.682762         1.705033         1.141056
 H        -3.207963        -0.290875        -0.516172
 H        -3.843439        -2.376826         1.015310
 H        -2.126270        -2.278659         0.390953
 H        -3.070858        -2.119085         3.246093
 H        -1.038340        -0.864746         3.873457
 H        -0.059795         0.588965         2.432185
 H         0.290941        -0.664719         1.241573
