19
Iteration:  1284charge 0 multiplicity 1
 O        -0.800795         0.949216        -0.081702
 C        -1.725229         0.375109         0.894793
 C        -3.117571         0.909079         1.005310
 C        -2.948810        -0.510500         0.564065
 C        -3.348899        -1.748204         1.433716
 C        -2.269675        -2.072174         2.436322
 O        -0.892648        -2.510114         2.223280
 C        -1.138412        -1.205389         2.904927
 C        -0.814139         0.026188         2.135733
 H        -1.092682         1.848394        -0.209563
 H        -3.420427         1.127378         2.027931
 H        -3.576995         1.750265         0.415881
 H        -3.025578        -0.628303        -0.544661
 H        -4.307938        -1.523687         2.011181
 H        -3.507758        -2.553274         0.658046
 H        -2.761547        -2.713240         3.225076
 H        -0.870704        -1.143396         3.967339
 H        -0.702650         0.820415         2.828810
 H         0.131127        -0.214396         1.674391
