19
Iteration:   874charge 0 multiplicity 1
 O        -0.923386         0.816255        -0.211802
 C        -1.672881         0.396979         0.989366
 C        -3.117682         1.011916         1.101644
 C        -2.837685        -0.441133         0.592759
 C        -3.320847        -1.763718         1.370670
 C        -2.329877        -2.168298         2.418099
 O        -0.855240        -2.444666         2.230440
 C        -1.245997        -1.227833         2.908171
 C        -0.777166         0.096134         2.136450
 H        -1.117517         1.787740        -0.343186
 H        -3.338436         1.184502         2.114061
 H        -3.487112         1.785248         0.416074
 H        -2.708087        -0.673523        -0.471959
 H        -4.148114        -1.580229         2.040692
 H        -3.698494        -2.604839         0.734086
 H        -2.599922        -2.956355         3.127857
 H        -0.914153        -1.310957         4.082890
 H        -0.687165         0.887359         2.925960
 H         0.193865        -0.225495         1.683859
