19
Iteration:  1901
 O        -0.991471         1.117603        -0.112096
 C        -1.560718         0.369812         0.917436
 C        -3.004650         0.763187         1.361297
 C        -2.871713        -0.459904         0.537320
 C        -3.317486        -1.658884         1.318966
 C        -2.389943        -1.967199         2.484289
 O        -1.136869        -2.606096         2.335707
 C        -1.122654        -1.218728         2.785775
 C        -0.606934        -0.164154         1.850985
 H        -0.864485         2.080869         0.138462
 H        -3.345030         0.896719         2.398637
 H        -3.336601         1.576533         0.796263
 H        -3.212156        -0.408688        -0.444882
 H        -4.378938        -1.639612         1.593865
 H        -3.215385        -2.572089         0.640171
 H        -2.899064        -2.110851         3.475712
 H        -0.780559        -1.241935         3.812011
 H        -0.310531         0.709111         2.551628
 H         0.288229        -0.358708         1.206036
