19
Iteration:  1324charge 0 multiplicity 1
 O        -0.852194         0.762569        -0.124941
 C        -1.639951         0.350538         1.022083
 C        -3.041780         0.933006         1.141188
 C        -2.859252        -0.570523         0.610085
 C        -3.286188        -1.734270         1.350928
 C        -2.308420        -2.042349         2.472550
 O        -0.983082        -2.341462         1.987432
 C        -1.185040        -1.162616         2.865655
 C        -0.881585         0.141296         2.289582
 H        -1.498296         0.890709        -0.876623
 H        -3.256226         1.028701         2.177980
 H        -3.409065         1.694404         0.424843
 H        -2.939352        -0.689440        -0.460015
 H        -4.302739        -1.792313         1.612837
 H        -3.218987        -2.699705         0.868686
 H        -2.574897        -2.818529         3.158296
 H        -0.757938        -1.393751         3.889308
 H        -1.066606         0.921913         3.117001
 H         0.227535         0.233966         2.077380
