19
Iteration:  4238
 O        -0.972282         0.963813        -0.089624
 C        -1.647117         0.394231         0.918802
 C        -3.081341         0.927731         1.298027
 C        -2.933889        -0.327073         0.595689
 C        -3.330808        -1.734606         1.248907
 C        -2.325946        -2.030515         2.521653
 O        -0.945115        -2.508319         2.269268
 C        -1.181756        -1.224763         2.858949
 C        -0.605020        -0.186578         1.921488
 H        -1.232570         1.881692        -0.093520
 H        -3.464839         0.949387         2.356220
 H        -3.341740         1.751848         0.668496
 H        -3.150762        -0.125965        -0.483280
 H        -4.316002        -1.586369         1.676118
 H        -3.410188        -2.606159         0.474860
 H        -2.820021        -2.819516         3.173686
 H        -0.908456        -1.232734         3.904070
 H        -0.162925         0.557915         2.524779
 H         0.166496        -0.788253         1.384026
