19
Iteration:  2107charge 0 multiplicity 1
 O        -0.761964         0.804671        -0.068858
 C        -1.746570         0.387867         0.919284
 C        -3.057909         1.025463         1.294200
 C        -2.895768        -0.431068         0.645463
 C        -3.343331        -1.635650         1.492929
 C        -2.331909        -2.085270         2.506606
 O        -1.068090        -2.501123         1.925123
 C        -1.123175        -1.293461         2.780418
 C        -0.732583         0.058758         2.102248
 H        -1.297852         1.168192        -0.790837
 H        -3.223318         1.133119         2.395543
 H        -3.339736         1.854290         0.565538
 H        -3.317811        -0.604568        -0.408509
 H        -4.354389        -1.530868         2.014588
 H        -3.438071        -2.566762         0.914703
 H        -2.719554        -2.857259         3.256045
 H        -0.603371        -1.475346         3.743050
 H        -0.594044         0.904206         2.775059
 H         0.354613        -0.112337         1.753488
