19
Iteration:  2044charge 0 multiplicity 1
 O        -0.925594         0.991836        -0.091637
 C        -1.625439         0.404619         0.981915
 C        -3.066936         0.939303         1.155167
 C        -2.882636        -0.480648         0.595106
 C        -3.335168        -1.559704         1.516821
 C        -2.343136        -2.071651         2.479123
 O        -1.075562        -2.627766         2.068109
 C        -1.079633        -1.265589         2.820419
 C        -0.692679        -0.108713         2.032330
 H        -0.918215         1.966953        -0.226999
 H        -3.335960         1.043357         2.150233
 H        -3.389192         1.765894         0.483242
 H        -2.863161        -0.404570        -0.532909
 H        -4.217019        -1.255774         2.052407
 H        -3.749237        -2.428202         0.925127
 H        -2.902416        -2.712637         3.295571
 H        -0.582338        -1.444628         3.766880
 H        -0.565979         0.707510         2.792144
 H         0.255777        -0.271834         1.514641
