19
Iteration:    12
 O        -0.831161         0.722132        -0.079836
 C        -1.770008         0.292958         0.996949
 C        -3.189046         0.868185         0.725192
 C        -2.840744        -0.632463         0.555773
 C        -3.258339        -1.728212         1.487640
 C        -2.151373        -2.090057         2.419204
 O        -0.785301        -2.244355         2.025753
 C        -1.234165        -1.100606         3.000739
 C        -1.076953         0.195940         2.337921
 H         0.031038         0.347732         0.206202
 H        -3.625189         0.989303         1.738867
 H        -3.339667         1.701046         0.093945
 H        -2.678464        -0.944601        -0.466365
 H        -3.920213        -1.323852         2.260086
 H        -3.796465        -2.517176         0.976419
 H        -2.435636        -2.719137         3.258024
 H        -1.218507        -1.169918         4.078716
 H        -1.473058         0.934339         3.037099
 H        -0.019501         0.481531         2.207095
