19
Iteration:   926
 O        -0.935402         1.035832        -0.127575
 C        -1.671253         0.386240         0.892639
 C        -3.070073         0.761285         1.169482
 C        -2.865657        -0.506163         0.446759
 C        -3.159662        -1.766063         1.304831
 C        -2.406737        -1.907230         2.654597
 O        -1.116484        -2.470859         2.285503
 C        -1.089506        -1.233968         2.883050
 C        -0.699824        -0.041637         2.012602
 H        -1.157120         1.999963        -0.254992
 H        -3.452991         0.595801         2.166481
 H        -3.586296         1.682187         0.733097
 H        -3.247326        -0.818092        -0.522331
 H        -4.256739        -2.035029         1.356588
 H        -2.806004        -2.512284         0.579851
 H        -2.735849        -2.440905         3.526423
 H        -0.613435        -1.123157         3.911000
 H        -0.646503         0.678759         2.778907
 H         0.290087        -0.282196         1.649856
