19
Iteration:   150charge 0 multiplicity 1
 O        -1.034773         0.981462        -0.294717
 C        -1.653651         0.389366         0.919635
 C        -3.081197         0.833416         1.013490
 C        -2.792874        -0.545084         0.510457
 C        -3.158391        -1.782481         1.349781
 C        -2.311183        -2.163311         2.516814
 O        -0.840033        -2.429677         2.374235
 C        -1.336401        -1.157381         2.932094
 C        -0.901338         0.100001         2.230057
 H        -0.136304         1.305226        -0.050131
 H        -3.412468         1.079434         2.016124
 H        -3.332337         1.601682         0.367608
 H        -2.797025        -0.718125        -0.675006
 H        -4.173069        -1.629081         1.736220
 H        -3.235643        -2.646476         0.627341
 H        -2.908125        -2.726602         3.243329
 H        -1.142092        -1.022721         3.985831
 H        -0.814393         1.101380         2.737939
 H         0.173460        -0.176598         1.888912
