19
Iteration:  4497charge 0 multiplicity 1
 O        -1.198088         1.040321        -0.231443
 C        -1.664606         0.386645         0.923243
 C        -2.955613         0.962596         1.460098
 C        -2.774945        -0.404806         0.578472
 C        -3.014798        -1.692120         1.120723
 C        -2.429068        -1.973914         2.470516
 O        -1.153518        -2.686567         2.402315
 C        -1.143788        -1.259632         2.871737
 C        -0.592348        -0.134460         1.973048
 H        -1.101168         1.975177        -0.138343
 H        -3.365465         0.901370         2.469809
 H        -3.470287         1.738607         0.884271
 H        -3.029049        -0.310297        -0.450739
 H        -4.136403        -1.524970         1.355246
 H        -3.051898        -2.571912         0.473971
 H        -3.109620        -2.487899         3.099267
 H        -0.840579        -1.153574         3.858925
 H        -0.149357         0.716561         2.509239
 H         0.181173        -0.471322         1.254106
