19
Iteration:  4491
 O        -1.183999         1.051422        -0.254187
 C        -1.614829         0.480331         0.912109
 C        -2.971075         0.959767         1.407157
 C        -2.800940        -0.369385         0.602375
 C        -3.069544        -1.726834         1.147929
 C        -2.374792        -2.004254         2.488584
 O        -1.158280        -2.718736         2.406632
 C        -1.122734        -1.226211         2.863522
 C        -0.630658        -0.193457         1.969149
 H        -0.974912         1.967700         0.087508
 H        -3.421379         0.875995         2.428359
 H        -3.495606         1.740397         0.869067
 H        -3.188498        -0.223677        -0.432029
 H        -4.139156        -1.807142         1.240606
 H        -2.883384        -2.461547         0.309007
 H        -3.036223        -2.419845         3.358582
 H        -0.962924        -1.077911         3.999348
 H        -0.146181         0.572584         2.626341
 H         0.139652        -0.445172         1.204976
