19
Iteration:  1402
 O        -0.933791         0.919779        -0.095028
 C        -1.669521         0.400783         0.987478
 C        -3.011070         0.898614         0.953629
 C        -2.876086        -0.565892         0.569135
 C        -3.385625        -1.654366         1.547560
 C        -2.304361        -2.113546         2.448812
 O        -0.937427        -2.430769         1.975314
 C        -1.155713        -1.287888         2.868196
 C        -0.796292         0.108503         2.252925
 H        -0.082338         1.110362         0.359758
 H        -3.678371         1.305535         1.693827
 H        -3.207013         1.625884         0.166640
 H        -3.096843        -0.877335        -0.470609
 H        -4.268884        -1.465624         2.154392
 H        -3.635373        -2.642981         1.140758
 H        -2.657389        -2.769142         3.180326
 H        -0.859840        -1.382342         3.983244
 H        -1.086865         0.889620         3.017438
 H         0.304599         0.039796         1.963045
