19
Iteration:  2390
 O        -0.941774         0.928330        -0.159619
 C        -1.708012         0.512811         0.970971
 C        -3.051885         0.946378         1.062048
 C        -2.913141        -0.417400         0.660269
 C        -3.294947        -1.618756         1.528641
 C        -2.287833        -2.126170         2.519208
 O        -1.098406        -2.598375         1.975446
 C        -1.050888        -1.403453         2.796803
 C        -0.761358         0.017889         2.129332
 H        -0.075660         1.163798         0.185349
 H        -3.512719         1.200210         2.058207
 H        -3.133961         1.869372         0.510368
 H        -2.851771        -0.489020        -0.402168
 H        -4.026427        -1.105300         2.145522
 H        -3.767314        -2.430366         1.008914
 H        -2.651111        -2.618855         3.341649
 H        -0.668443        -1.523790         3.865973
 H        -0.812117         0.672811         3.115260
 H         0.356920         0.129043         1.911799
