19
Iteration:  4901charge 0 multiplicity 1
 O        -0.932112         0.961061        -0.169958
 C        -1.650775         0.394586         0.893894
 C        -3.004523         0.926039         1.285400
 C        -2.937938        -0.456482         0.618818
 C        -3.349513        -1.686309         1.374267
 C        -2.336127        -2.011626         2.484551
 O        -0.994599        -2.560952         2.069585
 C        -1.105243        -1.319462         2.877059
 C        -0.690363        -0.024795         2.093480
 H        -0.877931         1.960346        -0.104044
 H        -3.318155         1.036958         2.403453
 H        -3.460629         1.618503         0.605557
 H        -3.395953        -0.412386        -0.332752
 H        -4.346000        -1.762573         1.933078
 H        -3.382526        -2.397297         0.534069
 H        -2.743804        -2.618007         3.251669
 H        -0.857381        -1.578573         3.956605
 H        -0.859344         0.794402         2.832896
 H         0.374445         0.177626         1.804438
