19
Iteration:  1075
 O        -1.147595         1.336374        -0.177560
 C        -1.668359         0.418863         0.851911
 C        -3.017347         0.807443         1.285064
 C        -2.890651        -0.428439         0.553366
 C        -2.982945        -1.884263         1.127987
 C        -2.425866        -2.096387         2.576326
 O        -1.089564        -2.536528         2.748045
 C        -1.287231        -1.102206         2.777194
 C        -0.527519        -0.352222         1.719367
 H        -0.683972         2.108588         0.230840
 H        -3.235410         0.646423         2.389584
 H        -3.382468         1.643238         0.649750
 H        -3.109003        -0.377350        -0.517188
 H        -4.079808        -1.970737         1.166170
 H        -2.507949        -2.670030         0.553329
 H        -3.169709        -2.270188         3.392138
 H        -1.218715        -0.577152         3.732145
 H         0.052851         0.384538         2.316601
 H         0.123029        -0.972083         1.096098
