19
Iteration:   830
 O        -0.892452         0.762866        -0.143300
 C        -1.744017         0.342454         0.943499
 C        -3.063126         1.012764         1.073001
 C        -2.880533        -0.491022         0.616082
 C        -3.321197        -1.813867         1.383910
 C        -2.306122        -2.030795         2.561907
 O        -0.945969        -2.455080         2.052129
 C        -1.024211        -1.215304         2.818161
 C        -0.926860         0.146801         2.227124
 H        -0.115745         1.236981         0.258082
 H        -3.506510         1.146076         2.015804
 H        -3.321399         1.798866         0.317135
 H        -3.026028        -0.546285        -0.481012
 H        -4.352730        -1.649546         1.567820
 H        -3.285709        -2.694533         0.697796
 H        -2.711045        -2.618984         3.435619
 H        -0.434114        -1.196450         3.850588
 H        -1.399143         0.841807         3.007442
 H         0.166635         0.428417         2.114727
