19
Iteration:   551
 O        -0.983272         1.011054        -0.182289
 C        -1.661774         0.280457         0.842276
 C        -3.111723         0.842924         1.057891
 C        -2.919457        -0.514053         0.480995
 C        -3.182984        -1.746218         1.323977
 C        -2.240632        -2.186611         2.511675
 O        -0.904245        -2.390885         2.308120
 C        -1.240951        -1.128476         2.999107
 C        -0.888489         0.086438         2.158758
 H        -0.064762         0.776234        -0.349122
 H        -3.364295         0.772885         2.137113
 H        -3.205239         1.757440         0.579963
 H        -3.067623        -0.539387        -0.631969
 H        -4.025043        -1.543655         1.967197
 H        -3.380016        -2.616965         0.751668
 H        -2.823332        -2.766563         3.193843
 H        -0.884514        -1.202177         3.996242
 H        -0.800758         1.010037         2.810810
 H         0.170124        -0.087780         1.850871
