19
Iteration:  4810
 O        -0.932879         0.905555        -0.214954
 C        -1.739012         0.408958         0.910183
 C        -3.038357         1.004911         1.232853
 C        -2.967090        -0.382544         0.641463
 C        -3.191910        -1.637988         1.376247
 C        -2.285964        -2.073390         2.539968
 O        -1.009843        -2.618964         2.081792
 C        -1.017476        -1.364462         2.790159
 C        -0.888746        -0.019597         2.157006
 H        -0.424001         1.674743         0.108520
 H        -3.230734         0.997393         2.261174
 H        -3.564922         1.827284         0.676652
 H        -3.276104        -0.378350        -0.458418
 H        -4.212390        -1.473902         1.790780
 H        -3.080616        -2.449351         0.643634
 H        -2.772485        -2.306096         3.461455
 H        -0.453574        -1.380420         3.691212
 H        -1.135771         0.729673         2.910273
 H         0.181806         0.022236         2.076945
