19
Iteration:  2323charge 0 multiplicity 1
 O        -0.856853         0.689505        -0.186896
 C        -1.615165         0.420368         1.053172
 C        -2.990256         1.043516         1.240836
 C        -2.902869        -0.339624         0.754649
 C        -3.366514        -1.629781         1.467596
 C        -2.348580        -2.153638         2.496084
 O        -0.974502        -2.422539         1.856830
 C        -1.134388        -1.341381         2.783099
 C        -0.832612         0.034966         2.207173
 H        -1.390951         1.005532        -0.944540
 H        -3.289197         1.393269         2.263878
 H        -3.214642         1.745231         0.394095
 H        -3.225201        -0.452318        -0.324892
 H        -4.291812        -1.553700         2.022178
 H        -3.500066        -2.350877         0.645578
 H        -2.690335        -2.875607         3.202696
 H        -0.647162        -1.541311         3.781881
 H        -0.994076         0.888890         2.969849
 H         0.243661         0.141450         2.050071
