19
Iteration:   986
 O        -1.122149         1.186966        -0.293198
 C        -1.643846         0.353609         0.803457
 C        -3.030064         0.843881         1.383218
 C        -2.841750        -0.433836         0.489839
 C        -3.010861        -1.781713         1.154504
 C        -2.391568        -2.075551         2.487381
 O        -0.988352        -2.513823         2.582661
 C        -1.301189        -1.142480         3.001477
 C        -0.722595        -0.233576         1.905338
 H        -0.457922         1.714519         0.207695
 H        -3.246843         0.542764         2.400114
 H        -3.375077         1.847311         1.008463
 H        -3.224315        -0.447083        -0.552056
 H        -4.094561        -1.804587         1.196486
 H        -2.654509        -2.496873         0.379207
 H        -3.104760        -2.533200         3.224778
 H        -1.306033        -0.732356         4.105422
 H        -0.118645         0.686582         2.179357
 H         0.052557        -0.817113         1.340813
