19
Iteration:  1551
 O        -0.908418         1.081174        -0.056134
 C        -1.649168         0.379945         0.877842
 C        -3.082426         0.875890         1.150463
 C        -2.847014        -0.522222         0.500101
 C        -3.209523        -1.787825         1.337476
 C        -2.360960        -1.942572         2.659345
 O        -1.103760        -2.444620         2.107276
 C        -1.115770        -1.295097         2.889121
 C        -0.694634        -0.059401         2.142018
 H        -1.000261         0.595771        -0.894224
 H        -3.454340         1.028641         2.221297
 H        -3.689439         1.484253         0.472657
 H        -3.221219        -0.471004        -0.546262
 H        -4.189116        -1.499834         1.634747
 H        -3.052214        -2.626783         0.654503
 H        -3.013551        -2.599904         3.392609
 H        -0.764740        -1.457554         3.926518
 H        -0.783165         0.851095         2.706747
 H         0.287232        -0.174605         1.758620
