19
Iteration:  3552charge 0 multiplicity 1
 O        -1.133227         1.122149        -0.111596
 C        -1.680043         0.434036         0.973897
 C        -3.059431         0.889843         1.234821
 C        -2.747096        -0.401391         0.573784
 C        -3.153245        -1.682264         1.303414
 C        -2.379383        -1.958362         2.538737
 O        -1.121451        -2.679461         2.311416
 C        -1.106981        -1.328600         2.842009
 C        -0.638417        -0.167457         1.861218
 H        -0.639328         1.896110         0.201042
 H        -3.558545         0.947690         2.246826
 H        -3.093364         1.750743         0.575575
 H        -2.838160        -0.529863        -0.445198
 H        -4.136300        -1.590542         1.704255
 H        -3.046577        -2.442036         0.480462
 H        -3.064776        -2.218529         3.356933
 H        -0.821635        -1.196950         3.873379
 H        -0.244830         0.551566         2.546657
 H         0.089554        -0.594339         1.149900
