19
Iteration:  3294
 O        -0.839916         0.740470        -0.085708
 C        -1.703408         0.337736         1.011259
 C        -3.043587         1.069736         1.127870
 C        -2.943288        -0.422244         0.614222
 C        -3.375759        -1.551809         1.520825
 C        -2.247516        -2.114077         2.426052
 O        -0.952557        -2.414361         1.897527
 C        -1.019377        -1.362028         2.870210
 C        -0.913352        -0.025593         2.229204
 H        -1.302780         1.282645        -0.724534
 H        -3.615879         1.172262         2.070538
 H        -3.229318         1.976152         0.421904
 H        -3.004781        -0.336724        -0.462457
 H        -4.307350        -1.414333         2.075756
 H        -3.462034        -2.412362         0.753250
 H        -2.569212        -2.824374         3.217095
 H        -0.753253        -1.475700         3.963086
 H        -0.829950         0.737904         3.044594
 H         0.123704        -0.019849         1.867927
