19
Iteration:  4455charge 0 multiplicity 1
 O        -0.985828         1.148330        -0.096977
 C        -1.742395         0.401249         0.820436
 C        -2.956494         0.926848         1.419567
 C        -2.931979        -0.347560         0.586586
 C        -3.128321        -1.797635         1.158376
 C        -2.363154        -2.009705         2.541081
 O        -1.063683        -2.582971         2.447409
 C        -1.161885        -1.225007         2.834455
 C        -0.739002        -0.250805         1.732747
 H        -0.243650         1.503899         0.483045
 H        -3.211827         0.811845         2.474789
 H        -3.487604         1.675151         0.829981
 H        -3.645428        -0.193937        -0.179918
 H        -4.196910        -1.992166         1.282229
 H        -2.669424        -2.503820         0.440167
 H        -2.927835        -2.439539         3.411321
 H        -0.991111        -0.941659         3.832479
 H        -0.230473         0.559000         2.347729
 H         0.075536        -0.798503         1.173180
