19
Iteration:  3400charge 0 multiplicity 1
 O        -0.895271         0.985473        -0.138682
 C        -1.656270         0.409720         0.928065
 C        -3.092036         0.917713         1.133498
 C        -2.773005        -0.498809         0.659603
 C        -3.327428        -1.586768         1.546045
 C        -2.308858        -2.129161         2.498290
 O        -1.063817        -2.510483         1.974022
 C        -1.147834        -1.337826         2.810503
 C        -0.804987         0.027911         2.157861
 H        -0.085334         1.405569         0.130769
 H        -3.659462         0.790961         2.057800
 H        -3.365575         1.684789         0.335859
 H        -3.087679        -0.563090        -0.408756
 H        -4.315263        -1.378226         2.040572
 H        -3.688354        -2.424295         0.988708
 H        -2.818106        -2.761302         3.236690
 H        -0.489386        -1.456281         3.692937
 H        -0.613144         0.854930         2.844814
 H         0.197201        -0.294234         1.718220
