19
Iteration:  1001
 O        -1.104153         1.091132        -0.191725
 C        -1.682377         0.406488         0.856661
 C        -2.938459         0.793524         1.435353
 C        -2.903614        -0.436483         0.527568
 C        -2.982736        -1.888431         1.046056
 C        -2.374484        -1.979008         2.468177
 O        -1.102446        -2.471973         2.634770
 C        -1.304644        -1.098702         2.862000
 C        -0.667087        -0.156628         1.805848
 H        -0.514773         1.778068         0.098437
 H        -2.930801         0.783132         2.548177
 H        -3.610147         1.544737         0.936953
 H        -3.376591        -0.210201        -0.431648
 H        -4.037200        -2.278581         1.221051
 H        -2.461792        -2.582686         0.373291
 H        -2.971340        -2.436887         3.263047
 H        -1.074117        -0.921326         3.836732
 H        -0.199505         0.609430         2.510356
 H         0.117318        -0.784667         1.359893
