19
Iteration:  4168
 O        -1.105254         0.882813        -0.126952
 C        -1.596616         0.415447         1.010428
 C        -3.025763         0.929320         1.212436
 C        -2.855634        -0.390192         0.594542
 C        -3.239450        -1.733173         1.326581
 C        -2.359175        -2.003605         2.533426
 O        -1.119800        -2.569955         2.045134
 C        -1.041641        -1.287856         2.834864
 C        -0.680051         0.014224         2.151520
 H        -0.404267         1.514435        -0.036668
 H        -3.397051         1.022892         2.203889
 H        -3.319213         1.767524         0.511055
 H        -3.009617        -0.439004        -0.448982
 H        -4.292123        -1.624272         1.631183
 H        -3.120441        -2.592998         0.613316
 H        -2.942530        -2.439147         3.373812
 H        -0.476247        -1.423730         3.782160
 H        -0.820863         0.918693         2.755853
 H         0.360128         0.043275         1.771938
