19
Iteration:  4978
 O        -1.119091         1.014855        -0.195679
 C        -1.613067         0.321389         0.915294
 C        -2.879403         0.861643         1.407832
 C        -2.824084        -0.433271         0.504028
 C        -3.294670        -1.668100         1.320527
 C        -2.311895        -2.073433         2.473882
 O        -1.014276        -2.534127         2.196199
 C        -1.245419        -1.186379         2.821070
 C        -0.701600        -0.074104         2.049694
 H        -0.681255         1.857559         0.011051
 H        -3.069677         0.647453         2.448435
 H        -3.495094         1.737519         1.014075
 H        -3.199588        -0.186341        -0.449167
 H        -4.273309        -1.431910         1.914624
 H        -3.360505        -2.482940         0.593207
 H        -2.817506        -2.739768         3.128507
 H        -0.941193        -1.426947         3.849432
 H        -0.513912         0.780837         2.708033
 H         0.330123        -0.331921         1.675632
