19
Iteration:  4640charge 0 multiplicity 1
 O        -0.763073         1.013744        -0.170597
 C        -1.631326         0.308348         0.864957
 C        -3.019389         0.867522         1.389434
 C        -3.003641        -0.440128         0.611513
 C        -3.346553        -1.798797         1.352117
 C        -2.401114        -2.067690         2.504410
 O        -0.963052        -2.397773         2.136121
 C        -1.207460        -1.254565         2.817132
 C        -0.762557        -0.035430         2.001793
 H        -0.737267         1.938682         0.048926
 H        -3.089577         0.794597         2.501699
 H        -3.543667         1.810417         1.070240
 H        -3.396295        -0.394812        -0.439875
 H        -4.441603        -1.605248         1.670991
 H        -3.306486        -2.686669         0.694055
 H        -2.713486        -2.716688         3.341024
 H        -0.996757        -1.264839         3.904004
 H        -0.407385         0.774141         2.617023
 H         0.127013        -0.365113         1.457009
