19
Iteration:  2801charge 0 multiplicity 1
 O        -1.026628         1.073368        -0.195579
 C        -1.567244         0.307022         0.868437
 C        -2.891826         0.882664         1.423246
 C        -2.986918        -0.386942         0.622457
 C        -3.227069        -1.733788         1.271783
 C        -2.352197        -1.993734         2.475331
 O        -1.124431        -2.548556         2.198772
 C        -1.195205        -1.219524         2.835584
 C        -0.626905        -0.047418         2.099229
 H        -0.469888         0.459660        -0.689668
 H        -3.144236         0.690437         2.493767
 H        -3.376137         1.701527         1.014012
 H        -3.405695        -0.386306        -0.397734
 H        -4.439399        -1.725499         1.567523
 H        -3.015915        -2.412858         0.388350
 H        -2.970963        -2.614985         3.199113
 H        -0.993421        -1.292694         3.872486
 H        -0.508871         0.978058         2.497837
 H         0.312081        -0.394884         1.669541
