19
Iteration:  2179charge 0 multiplicity 1
 O        -0.846796         0.850905        -0.177042
 C        -1.732018         0.469248         0.903634
 C        -3.044956         1.079025         1.172946
 C        -2.900577        -0.312907         0.709774
 C        -3.319662        -1.588021         1.520556
 C        -2.292163        -2.131943         2.553051
 O        -0.997811        -2.599598         1.883092
 C        -1.066046        -1.387479         2.837541
 C        -0.854891         0.005057         2.225633
 H        -0.995058         0.171120        -0.813953
 H        -3.179049         1.359637         2.246688
 H        -3.298347         1.725094         0.375323
 H        -3.211834        -0.321429        -0.299219
 H        -4.268874        -1.336239         1.941064
 H        -3.474846        -2.528226         0.961463
 H        -2.769845        -2.936710         3.082350
 H        -0.512837        -1.605272         3.762730
 H        -1.023810         0.700686         3.117082
 H         0.182551         0.246077         2.060975
