19
Iteration:  2377charge 0 multiplicity 1
 O        -0.898880         0.874456        -0.143041
 C        -1.654502         0.359157         0.957391
 C        -3.117438         1.044831         1.152238
 C        -2.839229        -0.453362         0.595365
 C        -3.333437        -1.532362         1.569368
 C        -2.318623        -2.094025         2.505207
 O        -1.044703        -2.532106         1.923218
 C        -1.064696        -1.342161         2.806340
 C        -0.797303        -0.018915         2.179169
 H        -0.202949         1.468555         0.243249
 H        -3.333100         1.003693         2.242300
 H        -3.621517         1.657662         0.385160
 H        -3.051663        -0.727617        -0.463417
 H        -4.189503        -1.270375         2.208866
 H        -3.712540        -2.407577         0.954118
 H        -2.745884        -2.835712         3.214356
 H        -0.503739        -1.591845         3.727828
 H        -0.830551         0.865627         2.881596
 H         0.196676        -0.109264         1.747234
