19
Iteration:  3277charge 0 multiplicity 1
 O        -0.874991         0.785017         0.002078
 C        -1.651815         0.401393         1.061578
 C        -3.081588         1.001093         1.098249
 C        -2.894761        -0.451667         0.559069
 C        -3.364178        -1.599700         1.482685
 C        -2.347431        -2.138047         2.538841
 O        -1.009723        -2.425677         1.851115
 C        -1.091444        -1.296974         2.801385
 C        -0.735191         0.045775         2.218310
 H        -1.409685         1.083075        -0.720903
 H        -3.423212         0.916168         2.106965
 H        -3.251440         1.761595         0.429887
 H        -2.852849        -0.806510        -0.506247
 H        -4.170064        -1.200646         2.169455
 H        -3.830074        -2.412537         0.986595
 H        -2.630380        -2.940498         3.216558
 H        -0.417769        -1.576084         3.554997
 H        -0.774499         0.859497         2.939780
 H         0.321458         0.114752         1.864301
