19
Iteration:  4721charge 0 multiplicity 1
 O        -0.931624         0.980654        -0.154422
 C        -1.672726         0.449213         0.932032
 C        -3.048686         0.969940         1.273411
 C        -2.871003        -0.522360         0.579124
 C        -3.251038        -1.694129         1.407106
 C        -2.318676        -2.009720         2.546133
 O        -1.033252        -2.638850         2.104482
 C        -1.107119        -1.304731         2.738992
 C        -0.820008         0.015816         2.064653
 H        -0.507185         1.775622         0.198717
 H        -3.294733         1.052072         2.350239
 H        -3.360486         1.793717         0.735329
 H        -3.182323        -0.666795        -0.424084
 H        -4.315546        -1.501838         1.720016
 H        -3.175046        -2.694081         0.914855
 H        -2.868253        -2.502691         3.368442
 H        -0.528816        -1.476636         3.623754
 H        -1.029044         0.728617         2.887605
 H         0.176034         0.258475         1.734573
