19
Iteration:  4259
 O        -1.040125         1.035456        -0.166206
 C        -1.680971         0.389309         0.936178
 C        -3.025373         0.934898         1.337057
 C        -2.860488        -0.412655         0.587972
 C        -3.140604        -1.687688         1.284827
 C        -2.352953        -2.012202         2.505973
 O        -1.122953        -2.581555         2.278088
 C        -1.119281        -1.319502         2.872271
 C        -0.674097        -0.089696         1.908751
 H        -0.980970         2.013509        -0.125774
 H        -3.290392         0.728202         2.418886
 H        -3.271443         1.876732         0.891403
 H        -3.071865        -0.454651        -0.511928
 H        -4.185733        -1.878871         1.455651
 H        -2.920755        -2.591117         0.587246
 H        -2.980512        -2.234390         3.427209
 H        -0.823577        -1.350968         3.911821
 H        -0.305258         0.718317         2.460883
 H         0.085108        -0.629405         1.317353
