19
Iteration:  2466
 O        -0.881986         0.834221        -0.127400
 C        -1.696824         0.395596         0.969045
 C        -2.932061         0.923965         1.382340
 C        -2.890661        -0.455250         0.673732
 C        -3.329143        -1.705923         1.360725
 C        -2.376554        -2.048765         2.361378
 O        -1.034246        -2.373980         2.022359
 C        -1.174123        -1.191791         2.819988
 C        -0.693340        -0.052573         2.128138
 H        -1.406712         0.396406        -0.871853
 H        -3.249879         0.945338         2.438059
 H        -3.504478         1.541861         0.719713
 H        -3.106771        -0.186880        -0.314450
 H        -4.251849        -1.580283         1.964766
 H        -3.363981        -2.523933         0.628872
 H        -2.638130        -2.661609         3.145123
 H        -1.023736        -1.180224         3.916033
 H        -0.541132         0.766443         2.807749
 H         0.270221        -0.168683         1.716241
