19
Iteration:  1414charge 0 multiplicity 1
 O        -0.937095         0.905569        -0.097194
 C        -1.620255         0.330472         0.995853
 C        -3.083427         0.859394         0.988376
 C        -2.823459        -0.570183         0.593021
 C        -3.313209        -1.614229         1.491352
 C        -2.332519        -2.082397         2.559908
 O        -0.993437        -2.398514         1.960554
 C        -1.124823        -1.286575         2.833710
 C        -0.889982         0.091786         2.244263
 H        -0.041833         1.282453         0.019581
 H        -3.532662         0.844792         2.008578
 H        -3.140720         1.485580         0.155888
 H        -2.913950        -0.722102        -0.502873
 H        -4.133724        -1.131647         1.964480
 H        -3.710091        -2.313636         0.745968
 H        -2.581854        -2.831580         3.231075
 H        -0.665994        -1.491916         3.859043
 H        -0.956906         0.912732         3.004104
 H         0.219938         0.203049         2.033290
