19
Iteration:  2214charge 0 multiplicity 1
 O        -0.933587         0.909716        -0.052444
 C        -1.632555         0.348391         1.028808
 C        -3.021882         0.973249         1.131656
 C        -2.904626        -0.526047         0.661060
 C        -3.457403        -1.525976         1.548156
 C        -2.356888        -2.001937         2.558135
 O        -0.997975        -2.542871         1.820201
 C        -1.045636        -1.386465         2.743923
 C        -0.771016         0.046802         2.124955
 H        -0.035872         0.646287         0.073311
 H        -3.177249         1.406788         2.133083
 H        -3.178846         1.708883         0.242068
 H        -3.193390        -0.522360        -0.437662
 H        -4.242936        -1.115189         2.172591
 H        -3.865454        -2.376378         1.036942
 H        -2.509050        -2.795336         3.187104
 H        -0.497729        -1.448392         3.725697
 H        -0.995378         0.628862         3.046502
 H         0.282229        -0.050052         1.782081
