19
Iteration:  2123
 O        -0.786089         0.746781        -0.070766
 C        -1.638095         0.329366         0.958879
 C        -3.021744         0.972846         1.248196
 C        -3.025432        -0.349517         0.693499
 C        -3.373418        -1.637828         1.459446
 C        -2.269777        -2.063464         2.477876
 O        -1.008090        -2.317139         1.903976
 C        -1.110579        -1.276189         2.840167
 C        -0.791788        -0.133149         2.115558
 H        -1.293558         0.937394        -0.919077
 H        -3.392270         0.978224         2.268309
 H        -3.513982         1.775937         0.823737
 H        -3.101949        -0.285959        -0.334554
 H        -4.262493        -1.396501         1.971222
 H        -3.535404        -2.372915         0.654829
 H        -2.714488        -2.737674         3.214521
 H        -0.690226        -1.388170         3.832718
 H        -0.735409         0.731218         2.822910
 H         0.131875        -0.131013         1.624738
