19
Iteration:  4217
 O        -0.889873         1.001525        -0.173989
 C        -1.734606         0.397934         0.908483
 C        -2.963990         0.957319         1.332981
 C        -2.926323        -0.448229         0.585399
 C        -3.284185        -1.686968         1.390208
 C        -2.316476        -2.128707         2.405516
 O        -0.987720        -2.553396         2.265098
 C        -1.196115        -1.215777         2.807259
 C        -0.708349        -0.102403         2.004811
 H        -1.273922         1.920638        -0.012440
 H        -3.210180         0.969425         2.427292
 H        -3.436326         1.723405         0.772774
 H        -3.202410        -0.481180        -0.490873
 H        -4.238515        -1.500836         1.900182
 H        -3.402926        -2.428897         0.557876
 H        -2.910397        -2.798169         3.137532
 H        -1.056295        -1.185013         3.882451
 H        -0.409902         0.756056         2.595382
 H         0.156016        -0.337359         1.372904
