19
Iteration:  4309charge 0 multiplicity 1
 O        -1.135131         1.166980        -0.201745
 C        -1.649801         0.345617         0.926291
 C        -2.944740         0.870337         1.457248
 C        -2.866042        -0.387852         0.516847
 C        -3.120158        -1.718091         1.158377
 C        -2.327798        -1.998801         2.522832
 O        -1.107588        -2.682172         2.418073
 C        -1.242688        -1.149151         2.814927
 C        -0.640210        -0.196179         1.874362
 H        -0.329699         1.658282        -0.101818
 H        -3.039036         0.723813         2.571405
 H        -3.443681         1.717093         1.040066
 H        -3.257460        -0.196763        -0.504436
 H        -4.225900        -1.687579         1.441010
 H        -3.017786        -2.651912         0.645779
 H        -3.000318        -2.398303         3.244218
 H        -0.887758        -0.972656         3.876906
 H        -0.221191         0.681005         2.496206
 H         0.198860        -0.730290         1.397624
