19
Iteration:  2587
 O        -1.049424         1.203995        -0.087985
 C        -1.548665         0.343624         0.960005
 C        -2.985249         0.777185         1.379304
 C        -2.925434        -0.485121         0.461872
 C        -3.318310        -1.754592         1.277432
 C        -2.464885        -1.944922         2.597791
 O        -1.123590        -2.537328         2.235387
 C        -1.139210        -1.238673         2.752569
 C        -0.534178        -0.121945         1.955349
 H        -0.299335         0.835511        -0.547829
 H        -3.168260         0.627388         2.440898
 H        -3.148063         1.861062         0.967199
 H        -3.061109        -0.326701        -0.616989
 H        -4.363909        -1.497289         1.662784
 H        -3.478502        -2.763737         0.779723
 H        -2.704747        -2.363324         3.542381
 H        -0.759170        -1.159513         3.820296
 H        -0.134769         0.694330         2.486094
 H         0.270946        -0.383825         1.314775
