19
Iteration:  4041charge 0 multiplicity 1
 O        -0.882907         0.876681        -0.116023
 C        -1.627555         0.333360         0.961956
 C        -3.044546         0.951119         1.182780
 C        -2.911287        -0.474892         0.683153
 C        -3.343657        -1.670680         1.448364
 C        -2.363008        -2.078690         2.474173
 O        -1.014889        -2.465813         1.930309
 C        -1.093200        -1.295008         2.855050
 C        -0.767247         0.051153         2.126773
 H        -0.431175         1.700316         0.234681
 H        -3.577774         1.139870         2.145622
 H        -3.309780         1.752512         0.402903
 H        -3.157147        -0.658248        -0.372657
 H        -4.268093        -1.424483         2.067699
 H        -3.768731        -2.548787         0.859106
 H        -2.832378        -2.761986         3.248496
 H        -0.558756        -1.437878         3.841947
 H        -0.831134         0.972347         2.832622
 H         0.314541        -0.018822         1.730621
