19
Iteration:  1323charge 0 multiplicity 1
 O        -0.849244         0.762158        -0.123802
 C        -1.642112         0.352701         1.018735
 C        -3.048594         0.937891         1.137426
 C        -2.858206        -0.567934         0.615434
 C        -3.277761        -1.739120         1.355257
 C        -2.300937        -2.036773         2.471990
 O        -0.983054        -2.339560         1.982594
 C        -1.188059        -1.158631         2.867070
 C        -0.887926         0.127419         2.286282
 H        -1.499508         0.910402        -0.854805
 H        -3.241090         0.993554         2.183254
 H        -3.405170         1.686387         0.428481
 H        -2.920922        -0.695250        -0.447857
 H        -4.331396        -1.775774         1.616681
 H        -3.209887        -2.699974         0.863945
 H        -2.614126        -2.819046         3.184815
 H        -0.787703        -1.377946         3.887157
 H        -1.035202         0.925049         3.103061
 H         0.217589         0.199250         2.082186
