19
Iteration:  1553charge 0 multiplicity 1
 O        -0.922861         1.091390        -0.054352
 C        -1.657014         0.394542         0.882039
 C        -3.080620         0.890530         1.135311
 C        -2.843630        -0.544228         0.496076
 C        -3.201852        -1.786690         1.324663
 C        -2.372226        -1.944420         2.664415
 O        -1.099041        -2.455433         2.111961
 C        -1.120646        -1.292835         2.882366
 C        -0.692777        -0.072958         2.158133
 H        -0.958815         0.568215        -0.905261
 H        -3.421061         1.015250         2.234882
 H        -3.649625         1.448431         0.483863
 H        -3.266231        -0.479454        -0.540725
 H        -4.177595        -1.436783         1.671842
 H        -3.077721        -2.617164         0.654369
 H        -2.992934        -2.541390         3.390044
 H        -0.671382        -1.408864         3.926082
 H        -0.691285         0.846070         2.720039
 H         0.290633        -0.197821         1.748625
