19
Iteration:   115
 O        -0.865905         1.006527        -0.039681
 C        -1.719748         0.332790         0.957980
 C        -3.198373         0.719874         0.871703
 C        -2.858751        -0.611652         0.449862
 C        -3.186834        -1.707052         1.380843
 C        -2.280914        -2.103191         2.538242
 O        -0.903385        -2.363270         2.212124
 C        -1.195998        -1.117209         2.996237
 C        -0.901604         0.158460         2.204045
 H        -0.573274         0.313077        -0.656763
 H        -3.594357         0.891425         1.879689
 H        -3.305869         1.537610         0.060878
 H        -2.872871        -0.878954        -0.656749
 H        -4.143393        -1.416644         1.807865
 H        -3.443978        -2.608224         0.792769
 H        -2.662803        -2.804383         3.321834
 H        -0.946878        -1.307017         4.052740
 H        -0.815351         1.123317         2.832836
 H         0.183107        -0.104190         1.842895
