19
Iteration:  1658
 O        -1.006330         0.945983        -0.214768
 C        -1.625869         0.400579         0.869304
 C        -3.027110         0.939075         1.404501
 C        -2.878158        -0.370271         0.584050
 C        -3.154937        -1.809053         1.131978
 C        -2.420405        -1.966969         2.469917
 O        -1.104096        -2.598890         2.384426
 C        -1.215079        -1.172619         2.851838
 C        -0.586708        -0.086228         2.071425
 H        -1.543390         1.653634        -0.617457
 H        -3.175486         0.645922         2.519720
 H        -3.646434         1.700000         1.022249
 H        -3.127851        -0.110456        -0.462263
 H        -4.208098        -2.130828         1.122728
 H        -2.632717        -2.563992         0.458783
 H        -2.878675        -2.194409         3.380029
 H        -0.810196        -1.218883         3.843134
 H        -0.323729         0.823886         2.648923
 H         0.414833        -0.285647         1.595794
