19
Iteration:  3483
 O        -0.912200         0.865546        -0.201748
 C        -1.636112         0.400614         0.983273
 C        -2.959956         0.923370         1.413739
 C        -2.891673        -0.414900         0.727430
 C        -3.309464        -1.746562         1.223346
 C        -2.412408        -2.110844         2.488561
 O        -1.041456        -2.427089         2.101030
 C        -1.217875        -1.226661         2.840868
 C        -0.675095        -0.020062         2.029055
 H        -1.220842         1.751624        -0.501428
 H        -3.080346         1.025342         2.461897
 H        -3.326745         1.771424         0.843131
 H        -3.044704        -0.345399        -0.430826
 H        -4.325797        -1.715234         1.543199
 H        -2.912924        -2.589187         0.593588
 H        -2.958250        -2.692783         3.308688
 H        -0.974202        -1.358806         3.866683
 H        -0.527669         0.900906         2.676450
 H         0.266789        -0.335085         1.590041
