19
Iteration:  4931
 O        -0.953151         0.898163        -0.094898
 C        -1.788864         0.473105         0.958164
 C        -3.072594         1.042673         1.254872
 C        -2.859741        -0.391781         0.615553
 C        -3.148460        -1.696344         1.371222
 C        -2.329131        -2.068495         2.593718
 O        -1.043994        -2.618043         2.059623
 C        -1.129725        -1.328243         2.827134
 C        -0.771919        -0.021646         1.968278
 H        -0.538486         1.730357         0.064060
 H        -3.452509         1.083206         2.349497
 H        -3.305717         1.865931         0.637547
 H        -3.141067        -0.600303        -0.430054
 H        -4.180941        -1.793299         1.899094
 H        -2.884230        -2.404336         0.548232
 H        -2.760854        -2.640679         3.405097
 H        -0.680674        -1.406285         3.828738
 H        -0.607301         0.811266         2.652467
 H         0.111794        -0.154320         1.356086
