19
Iteration:   794
 O        -0.894307         0.799395        -0.201186
 C        -1.667791         0.329983         0.985889
 C        -3.136520         0.896367         1.035167
 C        -2.712135        -0.544955         0.568648
 C        -3.353751        -1.647681         1.494040
 C        -2.280759        -2.130631         2.586321
 O        -0.940066        -2.309244         1.907653
 C        -1.193998        -1.220310         2.916457
 C        -0.943262         0.118480         2.257443
 H         0.004511         0.948371         0.207552
 H        -3.663515         0.800028         2.057381
 H        -3.494200         1.658434         0.368724
 H        -2.713313        -0.809950        -0.478589
 H        -4.305693        -1.261647         1.894875
 H        -3.562113        -2.548870         0.936973
 H        -2.489093        -2.809181         3.401798
 H        -0.579032        -1.445699         3.918673
 H        -1.132439         0.903241         2.989105
 H         0.148778         0.201651         2.074795
