19
Iteration:   348
 O        -1.144460         1.166475        -0.272275
 C        -1.639824         0.315678         0.796456
 C        -2.901484         0.824386         1.330968
 C        -2.811325        -0.509803         0.530078
 C        -2.994823        -1.867738         1.055654
 C        -2.407126        -2.053043         2.487004
 O        -1.002710        -2.427107         2.751272
 C        -1.388065        -1.069974         2.926512
 C        -0.739225        -0.216836         1.878898
 H        -1.044547         2.054517         0.054340
 H        -3.050175         1.108473         2.319373
 H        -3.290981         1.631246         0.682731
 H        -3.241779        -0.304631        -0.449321
 H        -3.999064        -2.211253         1.015059
 H        -2.411362        -2.603817         0.441053
 H        -3.003023        -2.761864         3.145995
 H        -1.297962        -0.762450         3.975559
 H        -0.542279         0.722414         2.439853
 H         0.218164        -0.680955         1.474381
