19
Iteration:    98charge 0 multiplicity 1
 O        -0.762535         0.910468         0.006343
 C        -1.750828         0.427033         0.898763
 C        -3.215831         0.808818         0.907116
 C        -2.746547        -0.636737         0.446507
 C        -3.199345        -1.801527         1.462229
 C        -2.288793        -1.966681         2.590314
 O        -0.961064        -2.368514         2.117040
 C        -1.133270        -1.140140         2.907298
 C        -0.969770         0.116643         2.240348
 H        -0.884050         0.466185        -0.838131
 H        -3.845855         0.760736         1.787004
 H        -3.714429         1.403412         0.241815
 H        -2.867622        -0.878481        -0.651687
 H        -4.286413        -1.789040         1.748280
 H        -3.090120        -2.792375         0.958723
 H        -2.795798        -2.578030         3.329768
 H        -0.647945        -1.117146         3.874357
 H        -1.250901         0.922961         2.904823
 H         0.031323         0.342528         2.062298
