19
Iteration:  3575charge 0 multiplicity 1
 O        -1.031990         1.219782        -0.140440
 C        -1.639707         0.361079         0.894466
 C        -3.051165         0.830376         1.357844
 C        -2.905401        -0.367321         0.472569
 C        -3.224051        -1.810760         1.277190
 C        -2.430666        -1.937857         2.594808
 O        -1.125202        -2.561369         2.309018
 C        -1.145279        -1.291908         2.854794
 C        -0.528301        -0.176663         1.879392
 H        -0.285833         1.711024         0.227886
 H        -3.363804         0.634108         2.442438
 H        -3.590413         1.568830         0.770878
 H        -2.946727        -0.412576        -0.541017
 H        -4.301084        -1.761111         1.468054
 H        -2.924176        -2.710820         0.679147
 H        -3.004388        -2.326759         3.456885
 H        -0.611191        -1.205526         3.830413
 H        -0.165633         0.613313         2.473165
 H         0.198132        -0.829619         1.339988
