19
Iteration:  1835charge 0 multiplicity 1
 O        -0.966833         1.111573        -0.092193
 C        -1.730388         0.411130         0.929570
 C        -2.970611         0.919417         1.469048
 C        -2.950143        -0.327695         0.572441
 C        -3.186868        -1.798773         1.109303
 C        -2.378280        -2.042643         2.466724
 O        -1.076765        -2.602147         2.483749
 C        -1.169250        -1.171173         2.804969
 C        -0.639083        -0.204547         1.800898
 H        -0.777682         0.338167        -0.669699
 H        -3.047677         0.873790         2.540555
 H        -3.314532         1.842395         0.890968
 H        -3.359475         0.056933        -0.324569
 H        -4.247516        -2.002433         1.300973
 H        -2.689278        -2.434628         0.297750
 H        -3.024941        -2.138957         3.376520
 H        -0.927505        -0.940094         3.845626
 H        -0.246426         0.745258         2.294074
 H         0.029034        -0.824866         1.178569
