19
Iteration:  2036
 O        -0.884904         0.965611        -0.106412
 C        -1.688816         0.396499         0.992604
 C        -3.071309         0.962311         1.193713
 C        -2.823840        -0.442772         0.613486
 C        -3.380861        -1.612441         1.500032
 C        -2.357953        -2.076938         2.483002
 O        -1.068759        -2.565580         2.065791
 C        -1.143988        -1.322436         2.789913
 C        -0.621796        -0.065317         1.987736
 H        -0.752856         1.925183         0.061363
 H        -3.497790         0.922632         2.182017
 H        -3.376708         1.761460         0.492536
 H        -3.176052        -0.736814        -0.384444
 H        -4.298880        -1.308947         2.036631
 H        -3.684932        -2.515700         0.895311
 H        -2.593623        -2.661921         3.385390
 H        -0.846942        -1.247778         3.841805
 H        -0.357618         0.713813         2.801174
 H         0.313753        -0.233719         1.422907
