19
Iteration:  2247charge 0 multiplicity 1
 O        -0.962253         0.915452        -0.199804
 C        -1.639541         0.374360         1.053215
 C        -2.988885         0.913778         1.149696
 C        -2.840351        -0.473239         0.647878
 C        -3.286114        -1.521262         1.584008
 C        -2.314584        -2.177992         2.554302
 O        -1.142811        -2.450151         1.785595
 C        -1.148899        -1.362668         2.854567
 C        -0.800865         0.034095         2.234292
 H         0.019593         0.801854        -0.229542
 H        -3.315858         1.341133         2.100717
 H        -3.135560         1.870611         0.500960
 H        -3.064767        -0.713010        -0.451721
 H        -4.037477        -1.052221         2.209783
 H        -3.796970        -2.235730         0.979729
 H        -2.726649        -3.033288         2.946097
 H        -0.438914        -1.525201         3.704288
 H        -0.424289         0.903917         2.885812
 H         0.226386        -0.158247         1.852424
