19
Iteration:   680charge 0 multiplicity 1
 O        -0.718870         0.699148         0.016484
 C        -1.758326         0.346704         1.004363
 C        -3.177192         0.873656         0.956118
 C        -2.810449        -0.568098         0.593441
 C        -3.295290        -1.704823         1.497106
 C        -2.203422        -2.089149         2.483125
 O        -0.943141        -2.245869         1.933494
 C        -1.217045        -1.138365         2.902253
 C        -0.930145         0.162406         2.242957
 H        -1.252768         0.768772        -0.832235
 H        -3.778339         0.872880         1.862183
 H        -3.463480         1.605006         0.233138
 H        -2.928138        -0.613249        -0.507123
 H        -4.246486        -1.534551         2.085774
 H        -3.491286        -2.618653         0.884340
 H        -2.456719        -2.961085         3.168005
 H        -0.781748        -1.345559         3.811007
 H        -0.966579         1.008063         2.883567
 H         0.078619         0.073903         1.878713
