19
Iteration:  2359
 O        -0.849811         0.753128        -0.107777
 C        -1.661243         0.347089         0.964707
 C        -2.985672         0.910197         1.207437
 C        -2.929351        -0.429850         0.644862
 C        -3.398000        -1.554108         1.525266
 C        -2.307762        -2.101378         2.505928
 O        -0.999396        -2.355675         1.862474
 C        -1.114948        -1.331239         2.811401
 C        -0.792542        -0.036544         2.170767
 H        -0.923623         1.742738        -0.043057
 H        -3.568320         1.059956         2.150085
 H        -3.117991         1.739878         0.538593
 H        -3.114417        -0.381887        -0.398666
 H        -4.323955        -1.217237         2.030884
 H        -3.751458        -2.349168         0.922320
 H        -2.592612        -2.824098         3.193483
 H        -0.627467        -1.389872         3.809644
 H        -0.940686         0.834326         2.869748
 H         0.233766        -0.141567         1.694689
