19
Iteration:  1716
 O        -0.941391         1.274055        -0.041147
 C        -1.639435         0.408505         0.930761
 C        -2.996783         0.809891         1.326066
 C        -2.924615        -0.424210         0.600383
 C        -3.194819        -1.823452         1.229343
 C        -2.447338        -1.993425         2.480863
 O        -1.092239        -2.545789         2.466511
 C        -1.233294        -1.169400         2.828920
 C        -0.583925        -0.222792         1.739433
 H        -0.466237         0.770221        -0.710663
 H        -3.460154         0.825526         2.261791
 H        -3.361554         1.651061         0.612148
 H        -3.316173        -0.481751        -0.404344
 H        -4.226282        -2.047571         1.552607
 H        -2.858119        -2.682511         0.527813
 H        -3.126830        -2.372151         3.377555
 H        -0.844852        -1.057243         3.847781
 H        -0.173846         0.648207         2.292065
 H         0.017221        -0.821599         1.042144
