19
Iteration:  1126
 O        -1.125623         1.102588        -0.213749
 C        -1.662107         0.308555         0.836738
 C        -3.101396         0.705906         1.428354
 C        -2.868242        -0.401682         0.432598
 C        -2.986236        -1.731242         1.158374
 C        -2.443159        -1.848750         2.534941
 O        -1.118907        -2.570302         2.565740
 C        -1.176576        -1.140247         2.904761
 C        -0.593567        -0.155880         1.872138
 H        -0.751473         1.903017         0.139167
 H        -3.490621         0.299553         2.326809
 H        -3.329501         1.562449         0.764801
 H        -3.233085        -0.303493        -0.642417
 H        -3.971606        -2.232442         1.044387
 H        -2.128174        -2.321989         0.660404
 H        -3.128297        -2.368404         3.253321
 H        -0.872429        -0.834475         4.039453
 H        -0.057741         0.728822         2.278200
 H         0.242529        -0.695799         1.316520
