19
Iteration:  2540
 O        -1.027696         1.122330        -0.155621
 C        -1.646801         0.506235         0.907902
 C        -2.984163         0.984748         1.259995
 C        -2.932577        -0.394003         0.590399
 C        -3.262318        -1.695726         1.385956
 C        -2.417517        -2.104711         2.504673
 O        -1.069594        -2.629214         2.239709
 C        -1.105037        -1.300026         2.818295
 C        -0.660647        -0.136189         2.001836
 H        -0.265316         0.542820        -0.322339
 H        -3.299524         0.760950         2.305797
 H        -3.343203         1.816854         0.706293
 H        -3.139995        -0.468029        -0.457908
 H        -4.302667        -1.800297         1.715755
 H        -3.131223        -2.539330         0.601901
 H        -2.803002        -2.641359         3.471215
 H        -0.618484        -1.220443         3.753656
 H        -0.332108         0.714272         2.637907
 H         0.296322        -0.280078         1.432351
