19
Iteration:  1795charge 0 multiplicity 1
 O        -0.978851         1.111181        -0.203919
 C        -1.581862         0.395418         0.898608
 C        -2.904550         0.905616         1.510336
 C        -2.910704        -0.353642         0.572729
 C        -3.170841        -1.787529         1.082351
 C        -2.404544        -2.044814         2.540638
 O        -1.125570        -2.576882         2.486086
 C        -1.231844        -1.153809         2.848106
 C        -0.669841        -0.226231         1.827413
 H        -1.660512         1.754252        -0.514518
 H        -3.112322         0.687296         2.577452
 H        -3.419749         1.647121         1.040323
 H        -3.337719        -0.264830        -0.431684
 H        -4.254667        -2.053759         1.051217
 H        -2.569178        -2.440850         0.467481
 H        -3.057685        -2.474012         3.358353
 H        -1.006601        -0.975590         3.900170
 H        -0.072050         0.543644         2.310243
 H         0.057325        -0.698320         1.192077
