19
Iteration:  1166
 O        -1.062905         1.054688        -0.335262
 C        -1.674427         0.452664         0.896253
 C        -2.984519         0.957626         1.355310
 C        -2.831242        -0.431641         0.612612
 C        -3.081572        -1.851147         1.128507
 C        -2.342367        -2.129225         2.483011
 O        -1.009485        -2.621217         2.605937
 C        -1.310707        -1.173997         2.867016
 C        -0.687550        -0.021599         1.915594
 H        -0.835694         1.995985        -0.080483
 H        -3.304996         1.128769         2.352400
 H        -3.646405         1.693302         0.834978
 H        -3.162259        -0.410315        -0.453777
 H        -4.155382        -2.045033         1.375758
 H        -2.731434        -2.601867         0.428111
 H        -3.011402        -2.632565         3.188046
 H        -1.331170        -0.991898         3.880117
 H        -0.407733         0.879036         2.554923
 H         0.100049        -0.496366         1.314136
