19
Iteration:   145
 O        -1.061104         0.991495        -0.268074
 C        -1.672940         0.414518         0.952709
 C        -3.011259         0.841556         0.978405
 C        -2.781364        -0.584745         0.484950
 C        -3.193516        -1.783687         1.369920
 C        -2.283440        -2.146773         2.521038
 O        -0.812859        -2.412638         2.362929
 C        -1.347552        -1.165947         2.911336
 C        -0.906342         0.074869         2.216917
 H        -0.144211         1.158835        -0.048550
 H        -3.458766         1.032164         1.979302
 H        -3.285874         1.716397         0.261831
 H        -2.856922        -0.769038        -0.502467
 H        -4.245034        -1.609094         1.683841
 H        -3.383821        -2.597100         0.689376
 H        -2.853069        -2.714298         3.269600
 H        -1.343549        -1.038973         4.033413
 H        -0.788754         0.994972         2.765724
 H         0.108379        -0.140730         1.944189
