19
Iteration:  4843
 O        -0.950868         0.922663        -0.135258
 C        -1.654871         0.403437         0.979051
 C        -3.080312         0.971469         1.191385
 C        -2.973959        -0.466496         0.640540
 C        -3.297798        -1.705954         1.427328
 C        -2.285018        -2.063528         2.508396
 O        -1.022107        -2.527670         2.033561
 C        -1.075946        -1.274267         2.795996
 C        -0.706648        -0.020837         2.127535
 H        -0.499225         1.678900         0.211875
 H        -3.440229         1.127750         2.184728
 H        -3.442387         1.783002         0.477265
 H        -3.111425        -0.384330        -0.492521
 H        -4.381995        -1.714951         1.814343
 H        -3.483686        -2.380877         0.561578
 H        -2.775088        -2.529356         3.374166
 H        -0.661089        -1.455998         3.761111
 H        -0.584483         0.805978         2.835099
 H         0.247546        -0.290546         1.668790
