19
Iteration:  3933
 O        -0.886511         0.919786        -0.242218
 C        -1.616416         0.377707         0.943066
 C        -2.978623         0.939832         1.297151
 C        -2.915140        -0.403187         0.563959
 C        -3.292188        -1.679670         1.442144
 C        -2.302929        -2.190090         2.495960
 O        -1.032986        -2.517547         2.005875
 C        -1.192221        -1.282915         2.904543
 C        -0.792397         0.045802         2.168414
 H        -1.268924         1.810469        -0.437135
 H        -3.088842         0.996283         2.445891
 H        -3.328407         1.720782         0.642687
 H        -3.066935        -0.368486        -0.499598
 H        -4.249605        -1.372928         1.918773
 H        -3.410670        -2.497973         0.841149
 H        -2.844425        -2.791565         3.255331
 H        -1.029904        -1.380913         4.031393
 H        -0.724094         0.896286         2.854421
 H         0.213917        -0.054331         1.752887
