19
Iteration:  2362charge 0 multiplicity 1
 O        -0.852142         0.762117        -0.108255
 C        -1.663379         0.341566         0.942931
 C        -2.989070         0.914701         1.221445
 C        -2.908571        -0.434495         0.647156
 C        -3.401293        -1.523917         1.535400
 C        -2.291625        -2.100269         2.510741
 O        -0.998937        -2.370417         1.872736
 C        -1.114328        -1.345244         2.807806
 C        -0.807951        -0.027351         2.158241
 H        -0.841829         1.746373         0.033597
 H        -3.679773         1.014456         2.012902
 H        -3.235355         1.716235         0.509383
 H        -3.184936        -0.360983        -0.406971
 H        -4.364739        -1.116884         1.941503
 H        -3.705973        -2.391133         0.893190
 H        -2.573738        -2.921322         3.275737
 H        -0.630437        -1.365037         3.763287
 H        -0.835348         0.734596         2.932809
 H         0.196617        -0.140031         1.736214
