19
Iteration:  4503
 O        -1.188251         1.034464        -0.220933
 C        -1.662799         0.350764         0.978907
 C        -2.960601         0.931661         1.477497
 C        -2.769286        -0.400252         0.531424
 C        -3.056024        -1.692775         1.147125
 C        -2.437845        -1.964021         2.445552
 O        -1.139903        -2.626178         2.400023
 C        -1.182825        -1.310543         2.853099
 C        -0.572058        -0.084535         1.925986
 H        -1.188840         2.024465        -0.223953
 H        -3.160144         0.820298         2.539725
 H        -3.362820         1.769447         0.854506
 H        -2.967012        -0.305327        -0.562792
 H        -4.062815        -1.539761         1.466909
 H        -3.010878        -2.630404         0.571064
 H        -3.189417        -2.464621         3.121936
 H        -0.769978        -1.275393         3.945719
 H        -0.222037         0.794449         2.484273
 H         0.278741        -0.603450         1.443625
