19
Iteration:  2353charge 0 multiplicity 1
 O        -0.855776         0.750580        -0.108035
 C        -1.642463         0.317809         1.027427
 C        -2.998700         0.957387         1.197455
 C        -2.956894        -0.431411         0.630647
 C        -3.386553        -1.613763         1.518122
 C        -2.339167        -2.078403         2.454742
 O        -1.009410        -2.349664         1.850189
 C        -1.106006        -1.291158         2.835570
 C        -0.770636        -0.020348         2.182194
 H        -0.996191         1.715407        -0.297979
 H        -3.143418         1.121631         2.281794
 H        -3.089068         1.836662         0.524355
 H        -3.035984        -0.587973        -0.480539
 H        -4.192103        -1.407096         2.276045
 H        -3.819318        -2.455331         0.871237
 H        -2.727771        -2.883564         3.223463
 H        -0.657770        -1.558816         3.796231
 H        -0.914934         0.873606         2.767367
 H         0.233344        -0.064760         1.816721
