19
Iteration:  2082
 O        -0.890852         0.980110        -0.154077
 C        -1.629272         0.463302         0.925307
 C        -3.008929         1.000200         1.162842
 C        -2.858553        -0.414784         0.669740
 C        -3.359354        -1.621461         1.491218
 C        -2.327519        -2.062483         2.546454
 O        -1.102849        -2.627578         2.043818
 C        -1.069505        -1.387249         2.744308
 C        -0.732328        -0.055712         2.094773
 H        -1.581628         1.453996        -0.583586
 H        -3.299522         1.214393         2.288709
 H        -3.293287         1.745311         0.443081
 H        -2.942314        -0.696992        -0.348770
 H        -4.321537        -1.451657         2.071252
 H        -3.501446        -2.522984         0.886816
 H        -2.724420        -2.651240         3.361570
 H        -0.500968        -1.437564         3.691925
 H        -1.080252         0.623765         2.969710
 H         0.380668         0.107219         2.175729
