19
Iteration:   535
 O        -0.987605         1.037146        -0.195028
 C        -1.729809         0.436107         0.841166
 C        -3.028985         0.888398         1.134183
 C        -2.783409        -0.547866         0.499905
 C        -3.168857        -1.769816         1.319765
 C        -2.301076        -2.059005         2.508213
 O        -0.856498        -2.501997         2.372465
 C        -1.254846        -1.212344         2.911562
 C        -0.906671         0.048216         2.134668
 H        -0.592508         0.267022        -0.593454
 H        -3.362799         1.058557         2.147697
 H        -3.738792         1.434209         0.437582
 H        -3.130834        -0.637716        -0.506714
 H        -4.214176        -1.647220         1.738058
 H        -3.196071        -2.722039         0.677233
 H        -2.766940        -2.731723         3.308490
 H        -1.117576        -0.962408         4.004192
 H        -1.036562         0.952144         2.701612
 H         0.159461         0.120565         1.873270
