19
Iteration:  4862
 O        -1.043374         0.921471        -0.220583
 C        -1.645409         0.428271         1.018717
 C        -3.026890         0.913940         1.246208
 C        -2.764220        -0.470800         0.639916
 C        -3.314720        -1.621442         1.430753
 C        -2.354514        -2.152577         2.438400
 O        -0.994593        -2.422112         2.011221
 C        -1.193476        -1.325153         2.930549
 C        -0.678752        -0.053354         2.097197
 H        -0.843217         1.848463        -0.107128
 H        -3.416987         0.856774         2.215360
 H        -3.413469         1.737614         0.625126
 H        -2.967908        -0.471898        -0.440145
 H        -4.265183        -1.116629         1.799690
 H        -3.470838        -2.589382         0.870447
 H        -2.800977        -2.874416         3.204463
 H        -0.864489        -1.355476         3.951404
 H        -0.472954         0.815440         2.745867
 H         0.264842        -0.378781         1.673300
