19
Iteration:  4320
 O        -1.132523         1.104850        -0.160278
 C        -1.658739         0.415158         0.870851
 C        -2.955882         0.865825         1.485905
 C        -2.852307        -0.394364         0.532766
 C        -3.143468        -1.690243         1.219143
 C        -2.411322        -2.040165         2.411602
 O        -1.039299        -2.531021         2.447442
 C        -1.236104        -1.197916         2.866238
 C        -0.605462        -0.274806         1.808987
 H        -0.399150         1.535612         0.290134
 H        -3.394038         0.709313         2.518309
 H        -3.398077         1.661362         0.949548
 H        -3.272409        -0.209777        -0.487724
 H        -4.256885        -1.826270         1.436461
 H        -2.840483        -2.348528         0.417613
 H        -2.951773        -2.314104         3.279616
 H        -1.108401        -1.193790         3.990125
 H         0.024947         0.575058         2.280716
 H         0.103052        -0.877471         1.206135
