19
Iteration:  1747
 O        -1.123871         1.230506        -0.154688
 C        -1.616786         0.409852         0.948658
 C        -3.013681         0.790314         1.339896
 C        -2.898501        -0.405118         0.397758
 C        -3.074942        -1.732373         1.222634
 C        -2.448321        -1.880248         2.542610
 O        -1.177629        -2.622118         2.504842
 C        -1.115036        -1.321102         2.891390
 C        -0.591017        -0.198864         1.788268
 H        -0.173919         1.342781         0.112887
 H        -3.295384         0.468555         2.348016
 H        -3.241434         1.890468         1.085734
 H        -3.217904        -0.451673        -0.655667
 H        -4.124500        -1.831611         1.551805
 H        -2.785863        -2.635795         0.571836
 H        -3.254650        -2.163343         3.229500
 H        -0.781714        -1.228654         3.930915
 H        -0.051246         0.681435         2.292356
 H         0.240681        -0.658751         1.179615
