19
Iteration:  1104charge 0 multiplicity 1
 O        -1.023695         1.190514        -0.112040
 C        -1.727296         0.372317         0.877810
 C        -3.057761         0.742555         1.386372
 C        -2.914115        -0.504758         0.458508
 C        -3.024482        -1.886894         1.099989
 C        -2.378163        -1.871017         2.459867
 O        -1.115349        -2.476892         2.673138
 C        -1.160715        -1.096748         2.839344
 C        -0.669261        -0.264372         1.729113
 H        -0.645967         1.928180         0.444702
 H        -3.037188         0.354578         2.355457
 H        -3.667487         1.604197         1.019081
 H        -3.086807        -0.277580        -0.622275
 H        -4.113509        -1.939959         1.241596
 H        -2.668717        -2.833547         0.574158
 H        -2.993939        -2.083928         3.360848
 H        -1.043244        -0.696381         3.963518
 H        -0.057737         0.536438         2.160779
 H         0.117469        -0.806848         1.139785
