19
Iteration:  3336charge 0 multiplicity 1
 O        -0.786041         0.704926        -0.195059
 C        -1.683094         0.464042         0.957830
 C        -2.962533         1.109879         1.207014
 C        -2.885399        -0.339911         0.707609
 C        -3.383504        -1.771867         1.536364
 C        -2.290838        -2.151015         2.436733
 O        -0.934146        -2.460816         1.949184
 C        -1.169575        -1.339685         2.784249
 C        -0.967554         0.076945         2.198579
 H        -0.962126         1.658429        -0.419373
 H        -3.447606         1.259368         2.218166
 H        -3.342292         2.098673         0.661207
 H        -3.205020        -0.676677        -0.332282
 H        -4.312721        -1.635054         2.130165
 H        -3.487008        -2.517258         0.737704
 H        -2.587506        -2.970813         3.135526
 H        -0.470176        -1.549855         3.729920
 H        -1.290544         0.795141         3.048957
 H         0.153183         0.135037         1.890542
