19
Iteration:  3923
 O        -0.934114         0.938591        -0.187531
 C        -1.625625         0.384727         0.939989
 C        -2.993454         0.898444         1.263735
 C        -2.830154        -0.468124         0.581096
 C        -3.424594        -1.593403         1.455161
 C        -2.280067        -2.160527         2.358405
 O        -0.979836        -2.579747         2.113261
 C        -1.210907        -1.213660         2.840917
 C        -0.737295         0.010079         2.169906
 H        -1.256510         1.815950        -0.425154
 H        -3.274119         1.108016         2.365204
 H        -3.318639         1.783996         0.727924
 H        -3.008636        -0.315328        -0.504987
 H        -4.369631        -1.419070         2.004730
 H        -3.731846        -2.384538         0.805802
 H        -2.559482        -2.849374         3.147020
 H        -0.794180        -1.258694         3.909340
 H        -0.661092         0.831087         2.829922
 H         0.233360        -0.262064         1.828426
