19
Iteration:  2941charge 0 multiplicity 1
 O        -0.952757         1.024221        -0.108957
 C        -1.644359         0.326660         0.949779
 C        -2.990825         0.924008         1.231147
 C        -2.901871        -0.382502         0.601661
 C        -3.326388        -1.662920         1.465810
 C        -2.357370        -2.035060         2.511939
 O        -1.117020        -2.475967         1.957537
 C        -1.085928        -1.340985         2.855129
 C        -0.682740        -0.028748         2.127472
 H        -0.443139         0.372752        -0.568119
 H        -3.398804         0.875268         2.285763
 H        -3.314759         1.662669         0.538370
 H        -3.143896        -0.666391        -0.444832
 H        -4.284472        -1.493235         1.935429
 H        -3.407647        -2.537221         0.775504
 H        -2.706950        -2.803967         3.307323
 H        -0.568874        -1.343018         3.865573
 H        -0.698310         0.856510         2.814456
 H         0.357645        -0.199751         1.809884
