19
Iteration:   773charge 0 multiplicity 1
 O        -0.956888         0.837016        -0.072646
 C        -1.720969         0.297727         1.010699
 C        -3.046027         0.903303         0.856547
 C        -2.961493        -0.545924         0.541934
 C        -3.283739        -1.636896         1.515533
 C        -2.272364        -2.120346         2.419484
 O        -0.878382        -2.309472         2.020611
 C        -1.132068        -1.237700         2.966271
 C        -0.885925         0.089464         2.246625
 H        -0.107789         0.949830         0.341060
 H        -3.552632         1.211148         1.833150
 H        -3.071984         1.583032         0.034890
 H        -3.097324        -0.883893        -0.473845
 H        -4.033768        -1.173497         2.139890
 H        -3.769980        -2.520374         1.111518
 H        -2.623461        -3.000938         2.933782
 H        -0.579840        -1.379005         4.042876
 H        -0.980007         0.877079         3.023149
 H         0.216137        -0.005380         1.969832
