19
Iteration:  1794charge 0 multiplicity 1
 O        -0.988968         1.110765        -0.203412
 C        -1.585623         0.404636         0.899602
 C        -2.890966         0.905584         1.511867
 C        -2.907985        -0.360549         0.579218
 C        -3.170953        -1.791060         1.081634
 C        -2.407247        -2.037314         2.537061
 O        -1.132829        -2.580134         2.490326
 C        -1.229046        -1.156746         2.842028
 C        -0.664222        -0.221946         1.826592
 H        -1.640616         1.808168        -0.514539
 H        -3.131859         0.670406         2.532169
 H        -3.406334         1.643218         0.997052
 H        -3.296619        -0.296424        -0.417836
 H        -4.252604        -2.042175         1.083050
 H        -2.548057        -2.461417         0.467316
 H        -3.071580        -2.507450         3.337338
 H        -0.994838        -0.987277         3.888496
 H        -0.076395         0.568579         2.344637
 H         0.045357        -0.702940         1.184015
