19
Iteration:  1577
 O        -1.044063         1.146038        -0.101788
 C        -1.622310         0.403976         0.966678
 C        -3.056775         0.870561         1.125821
 C        -2.796145        -0.476145         0.526972
 C        -3.287717        -1.706604         1.383378
 C        -2.327510        -2.061518         2.556404
 O        -1.065905        -2.601606         2.266332
 C        -1.159194        -1.263174         2.835470
 C        -0.702712        -0.039595         2.017058
 H        -0.284645         0.627719        -0.416396
 H        -3.612517         0.876533         2.035037
 H        -3.263657         1.743697         0.486206
 H        -2.656781        -0.588921        -0.551548
 H        -4.298465        -1.455574         1.803926
 H        -3.164147        -2.436740         0.620874
 H        -2.871129        -2.592143         3.236793
 H        -0.977820        -1.229539         3.949241
 H        -0.577455         0.920641         2.550067
 H         0.293065        -0.212070         1.535812
