19
Iteration:  2739
 O        -1.087525         1.333823        -0.069952
 C        -1.689027         0.426431         0.946102
 C        -3.063992         0.918891         1.202650
 C        -2.814841        -0.456724         0.510401
 C        -3.246093        -1.600593         1.304495
 C        -2.407337        -1.935518         2.569600
 O        -1.111109        -2.693411         2.373828
 C        -1.023902        -1.397060         2.871437
 C        -0.565621        -0.263397         1.843947
 H        -0.567348         0.701047        -0.592185
 H        -3.698657         0.836372         2.156084
 H        -3.366201         1.736525         0.593173
 H        -3.036477        -0.382878        -0.594935
 H        -4.283976        -1.559181         1.562803
 H        -3.342404        -2.578768         0.845089
 H        -2.847489        -2.509109         3.444139
 H        -0.753205        -1.264951         3.936431
 H         0.042772         0.502451         2.377973
 H         0.160144        -0.928774         1.253843
