19
Iteration:  4894charge 0 multiplicity 1
 O        -0.984969         0.956503        -0.195797
 C        -1.614012         0.366089         0.958063
 C        -2.963342         0.908799         1.280480
 C        -2.926332        -0.488169         0.628831
 C        -3.304871        -1.670050         1.401863
 C        -2.335254        -2.054652         2.425164
 O        -0.995508        -2.534080         2.071297
 C        -1.128184        -1.311050         2.852474
 C        -0.711367         0.013338         2.116040
 H        -1.066879         1.921794        -0.040657
 H        -3.200760         0.934870         2.284334
 H        -3.293908         1.841231         0.744704
 H        -3.190532        -0.290742        -0.426405
 H        -4.304017        -1.489336         1.737889
 H        -3.638112        -2.557216         0.808221
 H        -2.927426        -2.626091         3.225384
 H        -0.940498        -1.451383         3.924976
 H        -0.895584         0.888512         2.767078
 H         0.358109        -0.019912         1.820061
