19
Iteration:   899charge 0 multiplicity 1
 O        -0.936324         0.967675        -0.182031
 C        -1.607646         0.339147         0.906706
 C        -3.003732         0.823106         1.218833
 C        -2.804090        -0.528813         0.540333
 C        -3.272318        -1.762095         1.335966
 C        -2.317806        -2.043716         2.517439
 O        -1.001706        -2.491214         2.198651
 C        -1.261848        -1.126322         2.912180
 C        -0.773126         0.066804         2.083981
 H        -1.368970         1.832725        -0.405361
 H        -3.381688         0.960519         2.265809
 H        -3.431273         1.500062         0.539382
 H        -3.209254        -0.610892        -0.459428
 H        -4.281015        -1.608952         1.769127
 H        -3.437190        -2.640091         0.682387
 H        -2.665122        -2.676653         3.370357
 H        -0.777188        -1.157071         3.882867
 H        -0.799391         0.926886         2.841446
 H         0.259337        -0.277939         1.876285
