19
Iteration:  4822
 O        -0.920598         0.889039        -0.111749
 C        -1.703715         0.351676         0.881224
 C        -3.100826         1.035645         1.274329
 C        -2.941126        -0.368999         0.581510
 C        -3.209073        -1.678619         1.420996
 C        -2.316852        -2.013567         2.595131
 O        -1.022775        -2.599193         2.107841
 C        -0.987950        -1.351903         2.713792
 C        -0.879504         0.006795         2.058400
 H        -0.408840         1.606605         0.363542
 H        -3.278641         1.238808         2.306170
 H        -3.273566         1.916284         0.559877
 H        -3.226677        -0.412900        -0.542828
 H        -4.233254        -1.810798         1.779402
 H        -3.234006        -2.527082         0.730521
 H        -2.689015        -2.840149         3.098703
 H        -0.538235        -1.397383         3.696330
 H        -1.048902         0.643958         2.946424
 H         0.097697         0.256338         1.632085
