19
Iteration:  3480
 O        -0.907039         0.858293        -0.217065
 C        -1.656341         0.396990         0.992396
 C        -2.952453         0.934371         1.408083
 C        -2.905469        -0.409240         0.713224
 C        -3.298837        -1.752753         1.219498
 C        -2.400725        -2.095929         2.490542
 O        -1.055852        -2.442216         2.100091
 C        -1.213075        -1.218787         2.836695
 C        -0.668086         0.000979         2.060731
 H        -1.233121         1.716261        -0.479311
 H        -3.149323         0.951718         2.500555
 H        -3.352544         1.733180         0.834550
 H        -2.952243        -0.351158        -0.355534
 H        -4.302786        -1.765123         1.599748
 H        -3.008003        -2.528347         0.607685
 H        -2.950901        -2.776477         3.143391
 H        -0.874059        -1.316825         3.913480
 H        -0.455357         0.858980         2.753150
 H         0.229698        -0.358007         1.514241
