19
Iteration:  3936
 O        -0.879767         0.909208        -0.239540
 C        -1.631900         0.383662         0.929854
 C        -2.963883         0.949952         1.291697
 C        -2.916475        -0.392058         0.602700
 C        -3.257887        -1.691146         1.421868
 C        -2.331951        -2.164216         2.527173
 O        -1.032975        -2.497822         1.993441
 C        -1.192548        -1.305964         2.909908
 C        -0.794936         0.041951         2.157169
 H        -1.275094         1.801550        -0.391002
 H        -3.139013         0.953771         2.343345
 H        -3.380983         1.777541         0.679706
 H        -3.149831        -0.457686        -0.534089
 H        -4.181167        -1.434614         1.923032
 H        -3.431072        -2.588712         0.757124
 H        -2.838491        -2.785274         3.241474
 H        -0.954349        -1.435620         3.974437
 H        -0.773113         0.844291         2.853835
 H         0.214004        -0.038005         1.813355
