19
Iteration:  2133charge 0 multiplicity 1
 O        -0.810275         0.729288        -0.113785
 C        -1.733334         0.292487         0.978533
 C        -2.966950         1.011930         1.303057
 C        -2.989584        -0.380916         0.647475
 C        -3.390692        -1.577532         1.426495
 C        -2.328761        -2.071872         2.411026
 O        -0.951402        -2.338595         1.904629
 C        -1.109704        -1.324608         2.874597
 C        -0.771253         0.025690         2.186560
 H        -1.453084         0.751877        -0.852651
 H        -3.192731         0.980822         2.324097
 H        -3.290911         1.710742         0.595514
 H        -3.362108        -0.424739        -0.330654
 H        -4.268780        -1.555501         2.019706
 H        -3.587508        -2.476122         0.800100
 H        -2.670434        -2.852366         3.159770
 H        -0.734709        -1.543107         3.869764
 H        -0.518803         0.839110         2.852736
 H         0.163587        -0.288126         1.786886
