19
Iteration:  4486
 O        -1.153718         1.083120        -0.264980
 C        -1.612236         0.506553         0.941656
 C        -2.996811         0.945279         1.370036
 C        -2.832619        -0.325081         0.608071
 C        -3.117173        -1.757166         1.170833
 C        -2.344262        -2.033439         2.504458
 O        -1.147536        -2.715659         2.417077
 C        -1.142368        -1.249920         2.864380
 C        -0.637400        -0.194455         1.928539
 H        -0.818079         1.942236         0.057532
 H        -3.280001         0.839187         2.413276
 H        -3.459715         1.767271         0.803215
 H        -3.221549        -0.192371        -0.381854
 H        -4.211620        -2.027102         1.249773
 H        -2.662850        -2.378303         0.376442
 H        -2.928735        -2.259733         3.377540
 H        -1.026832        -1.113937         3.890014
 H        -0.176779         0.513235         2.642102
 H         0.197627        -0.585248         1.303237
