19
Iteration:   661charge 0 multiplicity 1
 O        -0.708376         0.747987        -0.086468
 C        -1.722931         0.462592         0.907145
 C        -3.224630         0.899780         0.963369
 C        -2.933111        -0.529210         0.610952
 C        -3.294080        -1.673133         1.462683
 C        -2.253433        -2.200675         2.458593
 O        -0.791062        -2.310973         2.062493
 C        -1.209932        -1.231657         2.947625
 C        -0.978908         0.108777         2.272044
 H        -1.016250         1.229728        -0.896197
 H        -3.549289         1.287425         1.908659
 H        -3.583924         1.532680         0.088681
 H        -2.807623        -0.840466        -0.435916
 H        -4.077954        -1.339943         2.116487
 H        -3.695305        -2.528810         0.978529
 H        -2.576271        -2.981285         3.125418
 H        -0.851727        -1.236675         4.011067
 H        -1.031367         0.896268         3.004987
 H         0.005153         0.041213         1.830852
