19
Iteration:  1942
 O        -0.909177         1.014703        -0.149832
 C        -1.674996         0.436787         0.914088
 C        -3.010577         0.962147         1.327848
 C        -2.914800        -0.326295         0.652992
 C        -3.204099        -1.678350         1.287489
 C        -2.368767        -2.089617         2.565933
 O        -1.037584        -2.585550         2.219330
 C        -1.188050        -1.231570         2.852809
 C        -0.745578        -0.171350         1.955362
 H        -1.453390         0.877929        -0.949465
 H        -3.187337         1.055692         2.429715
 H        -3.178812         1.894150         0.738976
 H        -3.300155        -0.228133        -0.327764
 H        -4.281781        -1.826891         1.407971
 H        -3.026580        -2.419101         0.527569
 H        -2.861535        -2.767782         3.241747
 H        -0.759949        -1.136613         3.864289
 H        -0.288736         0.577144         2.539098
 H         0.175183        -0.619346         1.561846
