19
Iteration:  2954charge 0 multiplicity 1
 O        -0.881557         0.963746        -0.088152
 C        -1.650549         0.393022         0.950871
 C        -3.036023         1.018318         1.249533
 C        -2.985363        -0.476384         0.608222
 C        -3.312536        -1.647381         1.438339
 C        -2.337213        -2.118325         2.508384
 O        -1.008705        -2.529190         2.024198
 C        -1.110731        -1.269586         2.775572
 C        -0.751330        -0.012055         2.088712
 H        -0.639810         0.231599        -0.745498
 H        -3.241789         1.142577         2.298577
 H        -3.078723         2.052254         0.828026
 H        -3.269068        -0.307545        -0.454369
 H        -4.214312        -1.468869         1.896075
 H        -3.544927        -2.547505         0.799242
 H        -2.863757        -2.783658         3.364842
 H        -0.805031        -1.570126         3.778202
 H        -0.739505         0.732409         2.923937
 H         0.253075         0.008705         1.711227
