19
Iteration:  4007
 O        -0.982310         0.916798        -0.234419
 C        -1.659819         0.393745         0.951612
 C        -2.983254         1.002029         1.211666
 C        -2.858899        -0.422548         0.654241
 C        -3.318418        -1.618651         1.460202
 C        -2.405282        -2.146413         2.492421
 O        -0.828911        -2.466709         2.014047
 C        -1.167213        -1.402954         2.877011
 C        -0.893157        -0.013135         2.146024
 H        -0.097855         1.323558        -0.105163
 H        -3.487598         0.951014         2.248664
 H        -3.243826         1.803968         0.510365
 H        -3.059080        -0.608952        -0.346504
 H        -4.066293        -1.021850         2.064331
 H        -3.886962        -2.326722         0.706495
 H        -2.943857        -2.913726         3.152372
 H        -0.809866        -1.566357         3.914205
 H        -0.807806         0.975509         2.775342
 H         0.223619        -0.234771         1.895075
