19
Iteration:  2120charge 0 multiplicity 1
 O        -0.789643         0.752555        -0.060926
 C        -1.606293         0.344026         0.963776
 C        -3.052297         0.989220         1.266540
 C        -3.019992        -0.378407         0.683667
 C        -3.356136        -1.642384         1.473049
 C        -2.285944        -2.058217         2.475992
 O        -1.021951        -2.346895         1.902443
 C        -1.115069        -1.268285         2.845339
 C        -0.785288        -0.110473         2.083563
 H        -1.198691         0.995023        -0.919613
 H        -3.338195         1.044911         2.264233
 H        -3.545625         1.890761         0.794196
 H        -3.096228        -0.354649        -0.428630
 H        -4.309765        -1.396913         1.956204
 H        -3.523596        -2.399488         0.679904
 H        -2.661619        -2.819956         3.280473
 H        -0.634904        -1.383283         3.815404
 H        -0.844421         0.688447         2.780386
 H         0.204614        -0.171802         1.625150
