19
Iteration:  2081charge 0 multiplicity 1
 O        -0.894134         0.985610        -0.156037
 C        -1.638801         0.460323         0.916555
 C        -3.011865         1.005487         1.162790
 C        -2.851062        -0.422497         0.662446
 C        -3.362926        -1.616814         1.502186
 C        -2.322430        -2.061883         2.552405
 O        -1.099548        -2.627870         2.046379
 C        -1.069889        -1.391752         2.744834
 C        -0.722436        -0.067902         2.098344
 H        -1.598376         1.476908        -0.581427
 H        -3.316649         1.221859         2.256724
 H        -3.273519         1.774745         0.471183
 H        -2.927767        -0.665623        -0.354683
 H        -4.314065        -1.431737         2.056126
 H        -3.467915        -2.520983         0.874752
 H        -2.791985        -2.656524         3.327948
 H        -0.519544        -1.453910         3.691511
 H        -1.105928         0.627337         2.963038
 H         0.378646         0.130311         2.183119
