19
Iteration:  3739charge 0 multiplicity 1
 O        -1.096401         1.187843        -0.154795
 C        -1.665473         0.372050         0.933028
 C        -2.944077         0.870171         1.387783
 C        -2.824892        -0.396301         0.500998
 C        -3.102894        -1.740987         1.252071
 C        -2.364351        -1.998532         2.529577
 O        -1.194785        -2.669150         2.399519
 C        -1.147396        -1.230831         2.811053
 C        -0.576381        -0.206415         1.872591
 H        -1.254635         2.119176         0.154868
 H        -3.400983         0.790105         2.371814
 H        -3.433065         1.565587         0.676931
 H        -3.024992        -0.200232        -0.537935
 H        -4.164190        -1.677162         1.439664
 H        -3.074828        -2.702862         0.623870
 H        -3.072340        -2.331342         3.299100
 H        -0.962340        -1.028875         3.894151
 H        -0.227116         0.761359         2.437655
 H         0.182106        -0.538347         1.102849
