19
Iteration:    45
 O        -0.811403         0.647814        -0.123807
 C        -1.748112         0.362746         0.926332
 C        -3.150435         0.905131         0.802407
 C        -2.826632        -0.546394         0.552499
 C        -3.235744        -1.723176         1.447403
 C        -2.249490        -2.227579         2.495713
 O        -0.765741        -2.188019         2.126754
 C        -1.171992        -1.163457         3.002808
 C        -1.110473         0.150176         2.327206
 H        -0.798407         1.607311        -0.236623
 H        -3.593124         1.131502         1.790942
 H        -3.335333         1.536449        -0.027418
 H        -2.884051        -0.797938        -0.442140
 H        -4.134909        -1.392592         1.994213
 H        -3.638279        -2.473684         0.785733
 H        -2.592618        -3.058369         3.097246
 H        -0.929310        -1.210095         4.059240
 H        -1.432607         0.918848         3.009623
 H        -0.091783         0.378794         2.085208
