19
Iteration:  3699charge 0 multiplicity 1
 O        -1.046934         1.202335        -0.151781
 C        -1.662861         0.329676         0.914756
 C        -2.987074         0.773607         1.502097
 C        -2.845758        -0.426009         0.419860
 C        -3.174356        -1.722624         1.193387
 C        -2.394622        -1.980985         2.505024
 O        -1.136110        -2.530253         2.417530
 C        -1.191398        -1.198129         2.851874
 C        -0.632750        -0.211770         1.787282
 H        -0.360137         1.681358         0.332372
 H        -3.185492         0.509129         2.516959
 H        -3.385518         1.678989         1.196353
 H        -3.214980        -0.240227        -0.652205
 H        -4.183852        -1.791720         1.627417
 H        -2.904861        -2.551944         0.597130
 H        -2.902398        -2.429864         3.357716
 H        -0.885238        -1.003617         3.873565
 H        -0.129560         0.535713         2.304377
 H         0.141267        -0.809395         1.319947
