19
Iteration:  3590
 O        -1.000256         1.172165        -0.138631
 C        -1.621412         0.366830         0.868198
 C        -3.008607         0.770980         1.434698
 C        -2.858959        -0.508557         0.581182
 C        -3.181161        -1.719938         1.232174
 C        -2.422372        -1.906779         2.493712
 O        -1.102088        -2.566760         2.344605
 C        -1.159894        -1.201602         2.780574
 C        -0.676651        -0.203445         1.850099
 H        -0.311670         1.658684         0.398775
 H        -3.169207         0.604038         2.464676
 H        -3.280020         1.786050         1.100118
 H        -3.535312        -0.303809        -0.342451
 H        -4.342635        -1.785425         1.419834
 H        -3.051389        -2.583470         0.593501
 H        -2.937120        -2.311623         3.362849
 H        -1.086550        -1.020543         3.910101
 H        -0.338105         0.681768         2.423533
 H         0.239712        -0.490688         1.300822
