19
Iteration:   620
 O        -0.890651         0.841184        -0.206906
 C        -1.688588         0.365818         0.956139
 C        -3.123155         0.872682         0.939374
 C        -2.844746        -0.510093         0.530278
 C        -3.192547        -1.730625         1.438043
 C        -2.306864        -2.001820         2.593403
 O        -0.921441        -2.467186         2.114982
 C        -1.042097        -1.277984         2.886160
 C        -1.021168         0.133560         2.288530
 H        -1.047853         1.816652        -0.177404
 H        -3.327925         1.168593         1.953344
 H        -3.466991         1.565658         0.096510
 H        -2.883723        -0.627881        -0.540681
 H        -4.178132        -1.427996         1.863777
 H        -3.322408        -2.626048         0.785567
 H        -2.648787        -2.702096         3.322799
 H        -0.677090        -1.430770         3.976883
 H        -1.504151         0.797216         3.140257
 H         0.094456         0.347596         2.276695
