19
Iteration:   137
 O        -1.082478         1.002383        -0.168750
 C        -1.660219         0.393958         0.924852
 C        -3.005508         0.909067         0.939664
 C        -2.746366        -0.641258         0.505299
 C        -3.278381        -1.783394         1.356060
 C        -2.287203        -2.130261         2.475084
 O        -0.817305        -2.361295         2.350805
 C        -1.314896        -1.153536         2.967407
 C        -0.888863         0.064529         2.143928
 H        -0.121211         0.837288        -0.143303
 H        -3.637367         0.818105         1.822185
 H        -3.197332         1.626364         0.073462
 H        -2.883579        -0.799231        -0.630827
 H        -4.181527        -1.532675         1.908899
 H        -3.473036        -2.694347         0.761869
 H        -2.502946        -2.777397         3.333361
 H        -1.326906        -1.139626         4.079484
 H        -0.934645         0.732119         3.041520
 H         0.238308        -0.136258         1.910912
