19
Iteration:  4680charge 0 multiplicity 1
 O        -1.066673         0.955872        -0.227968
 C        -1.707163         0.435989         0.994601
 C        -3.070328         0.992187         1.196394
 C        -2.817730        -0.402236         0.576209
 C        -3.249977        -1.643534         1.346357
 C        -2.394119        -2.053458         2.504797
 O        -0.956743        -2.573785         2.150736
 C        -1.100329        -1.385389         2.877242
 C        -0.686790        -0.079652         2.143144
 H        -0.944678         1.952082        -0.065261
 H        -3.472025         0.957262         2.243946
 H        -3.223182         1.828503         0.573295
 H        -2.867738        -0.448056        -0.508699
 H        -4.218584        -1.625749         1.760042
 H        -3.399625        -2.391350         0.578051
 H        -2.853671        -2.668765         3.228078
 H        -0.781765        -1.339366         3.965029
 H        -0.446311         0.754951         2.896514
 H         0.302835        -0.414391         1.712306
