19
Iteration:  2930charge 0 multiplicity 1
 O        -1.032602         1.048691        -0.124564
 C        -1.586583         0.334963         0.986536
 C        -2.966650         0.905868         1.198930
 C        -2.820869        -0.542387         0.630505
 C        -3.369878        -1.575658         1.449313
 C        -2.347167        -2.024993         2.527501
 O        -1.125786        -2.454550         1.951785
 C        -1.062832        -1.292527         2.853547
 C        -0.727209        -0.082652         2.144663
 H        -0.253749         0.560266        -0.463418
 H        -3.381507         0.952427         2.272418
 H        -3.488243         1.586015         0.601087
 H        -2.936560        -0.327197        -0.457892
 H        -4.399803        -1.417078         1.707500
 H        -3.398983        -2.514490         0.842468
 H        -2.786958        -2.639543         3.426697
 H        -0.572398        -1.817358         3.691468
 H        -0.528523         0.793977         2.811419
 H         0.253641        -0.254244         1.653986
