19
Iteration:  2710charge 0 multiplicity 1
 O        -1.058701         1.280651        -0.073003
 C        -1.614206         0.334586         0.852024
 C        -2.931222         0.842756         1.397089
 C        -2.888327        -0.501427         0.560276
 C        -3.178651        -1.722950         1.305099
 C        -2.399776        -1.928634         2.543289
 O        -1.224637        -2.645141         2.324720
 C        -1.150016        -1.224858         2.780717
 C        -0.552582        -0.161085         1.828344
 H        -0.575087         0.632637        -0.566453
 H        -3.286619         0.749384         2.481377
 H        -3.295796         1.764012         0.917983
 H        -3.148816        -0.245572        -0.497498
 H        -4.330333        -1.728202         1.437051
 H        -3.098840        -2.709569         0.683570
 H        -2.932455        -2.327288         3.358776
 H        -0.913489        -1.045156         3.884382
 H        -0.302395         0.682509         2.461467
 H         0.391188        -0.502992         1.432783
