19
Iteration:  1847
 O        -1.100248         1.138465        -0.146764
 C        -1.613558         0.406866         0.892459
 C        -3.039489         0.987173         1.420395
 C        -2.921461        -0.335074         0.600232
 C        -3.131534        -1.802069         1.158774
 C        -2.443412        -1.965258         2.503269
 O        -1.086755        -2.631021         2.452611
 C        -1.199174        -1.255749         2.791010
 C        -0.569423        -0.206734         1.862559
 H        -0.283158         0.734823        -0.568187
 H        -3.064884         0.966091         2.502753
 H        -3.318409         1.945471         1.032514
 H        -3.160746        -0.321104        -0.421404
 H        -4.209857        -2.012606         1.258058
 H        -2.823745        -2.652978         0.461046
 H        -3.064608        -2.368387         3.358060
 H        -1.005448        -1.144358         3.856682
 H         0.090612         0.524031         2.445426
 H         0.240643        -0.641614         1.263761
