19
Iteration:  1907
 O        -0.947789         1.078541        -0.068441
 C        -1.598285         0.359558         0.903004
 C        -3.045099         0.776220         1.352367
 C        -2.897442        -0.429590         0.564164
 C        -3.315550        -1.716243         1.279745
 C        -2.367345        -1.948100         2.497189
 O        -1.129457        -2.603795         2.301169
 C        -1.128319        -1.206495         2.802103
 C        -0.595422        -0.145647         1.866710
 H        -1.094975         2.054137        -0.009914
 H        -3.205800         0.942876         2.422974
 H        -3.216857         1.720721         0.659625
 H        -3.328288        -0.318807        -0.496015
 H        -4.325292        -1.459932         1.682096
 H        -3.190966        -2.557391         0.655898
 H        -2.833296        -2.209345         3.429987
 H        -0.640088        -0.986106         3.791636
 H        -0.349395         0.635928         2.522806
 H         0.193617        -0.611935         1.254307
