19
Iteration:  2375
 O        -0.891641         0.865851        -0.138404
 C        -1.647378         0.336694         0.961024
 C        -3.111798         1.049236         1.169566
 C        -2.833950        -0.452634         0.590457
 C        -3.347368        -1.517941         1.568328
 C        -2.318586        -2.094454         2.504453
 O        -1.034944        -2.518822         1.918275
 C        -1.062508        -1.330414         2.807811
 C        -0.814017        -0.015515         2.168897
 H        -0.261821         1.499867         0.199710
 H        -3.382213         0.968774         2.213238
 H        -3.632635         1.605566         0.368362
 H        -3.127619        -0.746844        -0.451583
 H        -4.237944        -1.232956         2.181387
 H        -3.674895        -2.424224         0.933583
 H        -2.732852        -2.910709         3.245666
 H        -0.529006        -1.604799         3.696557
 H        -0.752861         0.796823         2.898345
 H         0.190927        -0.113335         1.795845
