19
Iteration:  1343
 O        -0.877309         0.813567        -0.114431
 C        -1.613694         0.336462         0.953046
 C        -3.056191         0.929067         1.106893
 C        -2.896282        -0.464547         0.608116
 C        -3.315460        -1.758284         1.345594
 C        -2.310363        -2.135381         2.481637
 O        -0.966664        -2.389746         2.030047
 C        -1.027365        -1.246049         2.892401
 C        -0.898263         0.228058         2.288810
 H        -1.156438         0.228810        -0.880899
 H        -3.478685         0.843317         2.160129
 H        -3.160988         1.627097         0.310081
 H        -3.060981        -0.506256        -0.460226
 H        -4.370281        -1.426827         1.804366
 H        -3.582049        -2.562464         0.595442
 H        -2.935288        -2.738918         3.271932
 H        -0.786291        -1.438662         3.929178
 H        -1.276389         1.025559         2.988389
 H         0.140812         0.588125         2.328553
