19
Iteration:  3652charge 0 multiplicity 1
 O        -1.145919         1.014958        -0.251649
 C        -1.684938         0.442056         0.974067
 C        -2.974021         1.085820         1.407017
 C        -2.866467        -0.282622         0.664191
 C        -2.975370        -1.826172         1.091741
 C        -2.438933        -2.100925         2.482810
 O        -1.126856        -2.669762         2.435366
 C        -1.156050        -1.226636         2.894541
 C        -0.688775        -0.184800         1.851029
 H        -0.886451         1.969204        -0.113508
 H        -3.154232         0.906526         2.478277
 H        -3.306254         2.119938         1.049987
 H        -3.115986        -0.298942        -0.353656
 H        -4.039181        -1.931537         1.071222
 H        -2.353567        -2.395143         0.347195
 H        -3.021379        -2.518879         3.331198
 H        -1.005730        -1.139162         4.010192
 H        -0.110600         0.592350         2.445383
 H         0.164516        -0.623814         1.232109
