19
Iteration:  1000
 O        -1.107998         1.096737        -0.193561
 C        -1.688189         0.407482         0.846272
 C        -2.934169         0.794896         1.426145
 C        -2.894479        -0.437425         0.528911
 C        -2.983782        -1.875914         1.056342
 C        -2.369086        -1.988530         2.459305
 O        -1.101360        -2.468785         2.632921
 C        -1.300892        -1.096487         2.874098
 C        -0.673544        -0.168924         1.812053
 H        -0.497566         1.778911         0.089958
 H        -2.943860         0.760870         2.534827
 H        -3.624042         1.590873         0.950845
 H        -3.388602        -0.231506        -0.436066
 H        -4.030901        -2.273671         1.232420
 H        -2.481353        -2.600122         0.396869
 H        -2.990159        -2.469478         3.240716
 H        -1.074740        -0.934995         3.862996
 H        -0.206490         0.617948         2.525716
 H         0.112219        -0.809905         1.359044
