19
Iteration:   587
 O        -0.926626         0.838959        -0.124112
 C        -1.707905         0.401329         1.040422
 C        -3.167406         0.768872         0.978561
 C        -2.753237        -0.571980         0.560002
 C        -3.196105        -1.806462         1.382886
 C        -2.334308        -2.011389         2.561526
 O        -0.992280        -2.371634         2.067536
 C        -1.176202        -1.157397         2.866107
 C        -0.860303         0.155912         2.211666
 H        -0.189014         1.251924         0.308839
 H        -3.477375         1.015521         1.982106
 H        -3.530285         1.590696         0.292486
 H        -2.729246        -0.704175        -0.494106
 H        -4.189624        -1.595214         1.883048
 H        -3.401194        -2.755041         0.808806
 H        -2.715879        -2.625900         3.349345
 H        -0.697301        -1.062741         3.910232
 H        -0.731511         1.151915         2.852163
 H         0.111930        -0.001726         1.610234
