19
Iteration:  1150
 O        -1.204699         1.047833        -0.250492
 C        -1.653322         0.501905         0.871859
 C        -3.036327         0.941662         1.328206
 C        -2.788009        -0.443982         0.561529
 C        -2.981427        -1.950818         1.095476
 C        -2.407935        -2.020815         2.520780
 O        -1.106064        -2.608114         2.574510
 C        -1.217362        -1.143418         2.843041
 C        -0.641223        -0.110423         1.978646
 H        -0.798748         1.922288        -0.148253
 H        -2.997341         0.887041         2.459666
 H        -3.274792         1.695542         0.615725
 H        -3.199265        -0.339126        -0.448044
 H        -4.061185        -2.041646         1.232272
 H        -2.547090        -2.588482         0.268861
 H        -3.168586        -2.078980         3.331113
 H        -0.925683        -0.892402         3.976860
 H        -0.178451         0.623112         2.588218
 H         0.222804        -0.427032         1.371330
