19
Iteration:  2896charge 0 multiplicity 1
 O        -0.987944         1.107117        -0.096771
 C        -1.613084         0.359742         0.938789
 C        -3.018511         0.898985         1.193818
 C        -2.861338        -0.459900         0.605999
 C        -3.392273        -1.587387         1.449326
 C        -2.302596        -2.096793         2.535865
 O        -1.112948        -2.588563         2.060325
 C        -1.136759        -1.317714         2.794538
 C        -0.633392        -0.033270         2.069643
 H        -0.167990         0.729693        -0.377509
 H        -3.474044         0.856838         2.254522
 H        -3.343957         1.700891         0.541776
 H        -3.028865        -0.557215        -0.469411
 H        -4.279060        -1.340345         2.037014
 H        -3.567603        -2.437135         0.789848
 H        -2.898724        -2.524986         3.309805
 H        -0.565345        -1.280488         3.759450
 H        -0.521199         0.688895         2.907967
 H         0.355790        -0.202692         1.587374
