19
Iteration:  4418charge 0 multiplicity 1
 O        -1.158986         1.145335        -0.154786
 C        -1.546795         0.391320         0.925192
 C        -3.013861         0.788024         1.509506
 C        -2.789870        -0.365745         0.519907
 C        -3.204867        -1.738617         1.140143
 C        -2.459646        -2.014147         2.471056
 O        -1.102737        -2.542977         2.497841
 C        -1.151759        -1.175212         2.796761
 C        -0.547661        -0.301634         1.794180
 H        -0.551762         1.877953        -0.010040
 H        -3.396573         0.554189         2.528217
 H        -3.541074         1.639085         1.063197
 H        -3.264438         0.029902        -0.421295
 H        -4.350012        -1.820191         1.157882
 H        -2.842768        -2.520296         0.461834
 H        -3.012918        -2.166141         3.362064
 H        -0.990544        -0.997221         3.909995
 H        -0.097763         0.606327         2.232922
 H         0.208289        -0.759412         1.170692
