19
Iteration:  4113charge 0 multiplicity 1
 O        -0.875822         0.941734        -0.210759
 C        -1.644823         0.319648         0.906416
 C        -2.958220         1.057226         1.228566
 C        -2.929116        -0.399956         0.612887
 C        -3.323349        -1.705833         1.515409
 C        -2.333719        -2.211376         2.443633
 O        -0.930452        -2.466913         2.083862
 C        -1.192452        -1.285137         2.848625
 C        -0.855586        -0.028107         2.129374
 H        -0.867117         1.907672        -0.020007
 H        -3.264180         1.154741         2.267161
 H        -3.240146         1.830321         0.549194
 H        -3.176741        -0.479222        -0.402181
 H        -4.260793        -1.522485         2.061938
 H        -3.698550        -2.534576         0.871645
 H        -2.774833        -3.124901         2.888646
 H        -0.832011        -1.308386         3.905524
 H        -0.888244         0.867936         2.751298
 H         0.163364        -0.258527         1.748293
