19
Iteration:   673charge 0 multiplicity 1
 O        -0.667381         0.708195        -0.043434
 C        -1.795576         0.435438         1.047699
 C        -3.175816         0.864757         0.988823
 C        -2.847102        -0.575496         0.606815
 C        -3.275748        -1.711144         1.523252
 C        -2.176822        -2.098378         2.393490
 O        -0.933920        -2.256708         1.978480
 C        -1.224216        -1.151234         2.961743
 C        -0.997421         0.100521         2.182818
 H        -1.152842         0.907335        -0.885004
 H        -3.798246         0.959414         1.865725
 H        -3.477712         1.551794         0.111569
 H        -2.852296        -0.822622        -0.453671
 H        -4.124886        -1.532299         2.142898
 H        -3.552368        -2.449167         0.806518
 H        -2.580278        -2.807760         3.083013
 H        -0.644526        -1.307509         3.947008
 H        -0.931554         0.971361         2.865141
 H         0.065615         0.026322         1.919973
