19
Iteration:  2978
 O        -0.896244         0.868644        -0.167067
 C        -1.594278         0.418782         0.889089
 C        -3.068509         1.099744         1.271007
 C        -2.980406        -0.343971         0.740248
 C        -3.288173        -1.600449         1.373034
 C        -2.300198        -2.158215         2.442584
 O        -0.928200        -2.578152         2.071490
 C        -1.104727        -1.322557         2.875227
 C        -0.838576        -0.028557         2.108568
 H        -0.929763         0.254780        -0.908117
 H        -3.342362         1.352335         2.256234
 H        -3.525343         1.905528         0.601750
 H        -3.260353        -0.225342        -0.290678
 H        -4.132348        -1.588213         2.003738
 H        -3.582750        -2.315108         0.592391
 H        -2.908963        -2.989106         2.959512
 H        -0.949059        -1.431493         3.961095
 H        -0.874930         0.664551         2.957433
 H         0.211472         0.037530         1.814111
