19
Iteration:   171charge 0 multiplicity 1
 O        -0.905191         0.849817        -0.241389
 C        -1.705450         0.439816         0.859504
 C        -3.179910         0.831569         1.146408
 C        -2.810818        -0.513544         0.519191
 C        -3.083074        -1.845147         1.213228
 C        -2.320677        -2.015719         2.559480
 O        -0.997017        -2.429118         2.382379
 C        -1.165097        -1.145044         2.984626
 C        -0.834515         0.075067         2.115112
 H        -0.639612         1.714844         0.074708
 H        -3.563002         0.775719         2.177445
 H        -3.804193         1.472135         0.602149
 H        -3.263550        -0.574216        -0.581530
 H        -4.145084        -1.914112         1.194800
 H        -2.803998        -2.655385         0.481349
 H        -2.941860        -2.586311         3.247973
 H        -1.043117        -1.053821         4.059898
 H        -1.038128         1.003482         2.683319
 H         0.284933         0.249715         1.853358
