19
Iteration:  3722charge 0 multiplicity 1
 O        -1.121687         1.217931        -0.116708
 C        -1.550046         0.387445         0.939750
 C        -3.029459         0.798163         1.355465
 C        -2.773057        -0.500024         0.609077
 C        -3.282856        -1.782946         1.190064
 C        -2.456566        -1.930592         2.463519
 O        -1.089027        -2.553532         2.391787
 C        -1.211817        -1.215797         2.809461
 C        -0.504518        -0.218262         1.829573
 H        -0.843525         2.100312         0.253256
 H        -3.233887         0.728625         2.423074
 H        -3.292264         1.720803         0.936784
 H        -3.107210        -0.587575        -0.473544
 H        -4.361139        -1.684587         1.486439
 H        -3.065687        -2.573464         0.528942
 H        -2.990795        -2.220079         3.372270
 H        -0.924387        -0.991494         3.827667
 H         0.114803         0.401899         2.382266
 H         0.173276        -0.886876         1.318719
