19
Iteration:    14charge 0 multiplicity 1
 O        -0.834229         0.706151        -0.083451
 C        -1.775407         0.293896         0.988519
 C        -3.201513         0.877010         0.736995
 C        -2.852368        -0.626169         0.530789
 C        -3.267160        -1.728594         1.499336
 C        -2.147467        -2.099958         2.387466
 O        -0.756967        -2.250383         2.035159
 C        -1.250520        -1.071115         3.013980
 C        -1.064576         0.180582         2.341924
 H         0.081503         0.484541         0.311115
 H        -3.644178         0.939893         1.819146
 H        -3.300815         1.705528         0.037665
 H        -2.646843        -0.943182        -0.354808
 H        -3.912649        -1.277393         2.252514
 H        -3.833753        -2.481244         1.038778
 H        -2.497726        -2.739443         3.196716
 H        -1.268656        -1.208391         4.094825
 H        -1.472799         0.988063         3.042510
 H         0.076581         0.423019         2.150563
