19
Iteration:   391
 O        -1.071894         0.942787        -0.131124
 C        -1.741574         0.429053         0.924695
 C        -3.260576         0.759552         1.296265
 C        -2.769807        -0.503102         0.474742
 C        -2.929873        -1.862807         1.081783
 C        -2.435193        -1.799344         2.498321
 O        -1.048066        -2.509170         2.623995
 C        -1.169369        -1.142599         2.862184
 C        -0.635878        -0.058851         1.844586
 H        -0.321919         1.532172         0.074457
 H        -3.506436         0.711279         2.330135
 H        -3.741727         1.484585         0.682632
 H        -3.100187        -0.336806        -0.530980
 H        -3.996626        -1.982690         1.027674
 H        -2.314725        -2.608352         0.501727
 H        -3.219116        -2.031184         3.235759
 H        -1.074282        -0.727167         3.889954
 H        -0.406018         0.667044         2.529601
 H         0.305830        -0.421175         1.411840
