19
Iteration:  3581
 O        -1.006894         1.216530        -0.148310
 C        -1.628507         0.362814         0.848972
 C        -3.050371         0.774782         1.397101
 C        -2.886847        -0.400459         0.547027
 C        -3.210576        -1.804327         1.257466
 C        -2.469087        -1.900292         2.571370
 O        -1.094561        -2.555907         2.306856
 C        -1.143068        -1.257819         2.843460
 C        -0.594510        -0.214512         1.852178
 H        -0.257423         1.678087         0.319620
 H        -3.354376         0.679707         2.408870
 H        -3.473712         1.673510         0.936353
 H        -3.066663        -0.351577        -0.614484
 H        -4.256581        -1.827179         1.638052
 H        -3.001705        -2.623381         0.565046
 H        -3.049480        -2.241085         3.427747
 H        -0.852609        -1.207039         3.906203
 H        -0.168777         0.640100         2.528344
 H         0.297312        -0.618170         1.352051
