19
Iteration:  3693
 O        -1.038631         1.184161        -0.141754
 C        -1.679946         0.339257         0.826023
 C        -3.026736         0.785048         1.506692
 C        -2.844433        -0.429752         0.509434
 C        -3.121726        -1.700080         1.195879
 C        -2.350193        -1.949025         2.453246
 O        -1.141993        -2.573317         2.426573
 C        -1.189197        -1.199369         2.862436
 C        -0.671310        -0.223475         1.806427
 H        -0.325407         1.641207         0.312567
 H        -3.147271         0.515480         2.595858
 H        -3.279161         1.844411         1.183016
 H        -3.256397        -0.421163        -0.466656
 H        -4.205064        -1.800912         1.454046
 H        -2.939170        -2.570816         0.475666
 H        -3.071981        -2.275596         3.235854
 H        -0.796470        -0.969319         3.869541
 H        -0.223286         0.690462         2.385103
 H         0.132112        -0.804396         1.294472
