19
Iteration:  2696charge 0 multiplicity 1
 O        -0.999980         1.213410        -0.181262
 C        -1.615553         0.371642         0.861776
 C        -2.919929         0.777835         1.482115
 C        -2.899301        -0.388988         0.598478
 C        -3.260811        -1.788848         1.192711
 C        -2.477574        -1.935431         2.510704
 O        -1.152869        -2.552326         2.333204
 C        -1.140132        -1.234791         2.826960
 C        -0.589188        -0.152300         1.913507
 H        -0.285511         0.872093        -0.790175
 H        -2.975184         0.629341         2.643533
 H        -3.482081         1.587995         1.052299
 H        -3.578646        -0.377843        -0.296265
 H        -4.311102        -1.911616         1.486877
 H        -2.932074        -2.640686         0.497776
 H        -2.996439        -2.253869         3.471329
 H        -0.781521        -1.253672         3.899552
 H        -0.232973         0.726821         2.464069
 H         0.248343        -0.642622         1.325285
