19
Iteration:  4657
 O        -0.907103         0.917075        -0.052963
 C        -1.714705         0.372296         0.912531
 C        -3.005192         0.885988         1.319424
 C        -2.926358        -0.441995         0.576287
 C        -3.298594        -1.671538         1.363457
 C        -2.292262        -2.096840         2.391347
 O        -0.986146        -2.502778         2.133877
 C        -1.247178        -1.129255         2.901342
 C        -0.688892        -0.087846         1.962648
 H        -0.838146         1.860860        -0.007975
 H        -3.273188         0.872954         2.389372
 H        -3.363396         1.652919         0.696579
 H        -3.265390        -0.378225        -0.427837
 H        -4.208995        -1.617186         1.913855
 H        -3.520081        -2.442194         0.621545
 H        -2.784225        -2.726905         3.134020
 H        -0.735101        -1.147558         3.878300
 H        -0.533089         0.836653         2.632363
 H         0.299287        -0.423074         1.565485
