19
Iteration:  2860
 O        -0.917289         1.016014        -0.087035
 C        -1.661384         0.377396         0.898917
 C        -3.029440         1.053027         1.258207
 C        -2.985743        -0.309555         0.618947
 C        -3.243017        -1.654522         1.385895
 C        -2.338897        -2.171606         2.491774
 O        -1.013144        -2.618478         2.160815
 C        -1.120824        -1.233859         2.849775
 C        -0.768380        -0.125634         2.018791
 H        -0.769346         0.410771        -0.804941
 H        -3.254325         1.172228         2.311034
 H        -3.244506         2.042540         0.638729
 H        -3.397583        -0.412032        -0.392664
 H        -4.442316        -1.769640         1.609265
 H        -3.256736        -2.315316         0.519766
 H        -2.686911        -2.778871         3.324225
 H        -0.628388        -1.246768         3.862326
 H        -0.542392         0.772338         2.680429
 H         0.286611        -0.365464         1.625536
