19
Iteration:  3761
 O        -0.930690         1.166901        -0.241127
 C        -1.717014         0.422137         0.870964
 C        -3.076599         0.900649         1.349995
 C        -2.937862        -0.364377         0.560189
 C        -3.180142        -1.677267         1.249732
 C        -2.391224        -1.957248         2.545081
 O        -1.081699        -2.697520         2.446978
 C        -1.074100        -1.361138         2.790070
 C        -0.693431        -0.205913         1.957653
 H        -1.313931         2.041318        -0.117394
 H        -3.008520         0.790547         2.423292
 H        -3.396069         1.901555         1.090598
 H        -3.136565        -0.277362        -0.493693
 H        -4.115574        -2.148181         1.127847
 H        -2.582736        -2.310387         0.483411
 H        -2.989648        -2.384089         3.336288
 H        -0.747366        -1.348103         3.849255
 H        -0.464462         0.710415         2.619557
 H         0.198618        -0.480436         1.324925
