19
Iteration:  1838
 O        -1.000308         1.111975        -0.097617
 C        -1.723625         0.425361         0.919973
 C        -3.009619         0.947514         1.451545
 C        -2.932105        -0.319158         0.578916
 C        -3.184789        -1.818728         1.109496
 C        -2.396343        -2.034312         2.487002
 O        -1.071524        -2.609604         2.477414
 C        -1.177989        -1.186444         2.791796
 C        -0.605018        -0.206720         1.818904
 H        -0.602367         0.406650        -0.723900
 H        -2.956843         0.865038         2.528546
 H        -3.208005         1.781830         0.940774
 H        -3.292179         0.048998        -0.362903
 H        -4.239972        -1.996598         1.338701
 H        -2.694662        -2.466804         0.362204
 H        -3.070227        -2.117743         3.388278
 H        -0.935690        -1.050179         3.849120
 H        -0.186182         0.694282         2.289480
 H         0.086251        -0.797667         1.251372
