19
Iteration:  4179
 O        -1.043072         0.977066        -0.259200
 C        -1.627127         0.363719         0.973579
 C        -3.005162         0.960127         1.252732
 C        -2.855863        -0.459986         0.632706
 C        -3.212450        -1.687916         1.349185
 C        -2.345277        -1.943134         2.518440
 O        -1.146161        -2.579433         2.094464
 C        -1.066295        -1.338507         2.814510
 C        -0.728969        -0.004969         2.161697
 H        -0.564447         1.800400        -0.061369
 H        -3.347910         1.002039         2.254912
 H        -3.523043         1.705997         0.568017
 H        -3.042729        -0.378577        -0.402349
 H        -4.247809        -1.826385         1.690958
 H        -2.953293        -2.653225         0.850449
 H        -2.669705        -2.758269         3.158789
 H        -0.759959        -1.383806         3.884483
 H        -0.721838         0.578746         3.128939
 H         0.350067        -0.031524         1.935578
