19
Iteration:  1717charge 0 multiplicity 1
 O        -0.948090         1.272896        -0.037427
 C        -1.630375         0.402764         0.931921
 C        -2.999724         0.812001         1.330043
 C        -2.915998        -0.426121         0.596808
 C        -3.198980        -1.820931         1.228551
 C        -2.439147        -1.985601         2.483830
 O        -1.094053        -2.551077         2.464972
 C        -1.231132        -1.165389         2.828647
 C        -0.596267        -0.223187         1.729819
 H        -0.430651         0.762130        -0.655643
 H        -3.466330         0.813987         2.236485
 H        -3.398707         1.623112         0.609095
 H        -3.311962        -0.462749        -0.397319
 H        -4.231027        -2.048337         1.547534
 H        -2.841167        -2.644334         0.537726
 H        -3.149462        -2.349221         3.365206
 H        -0.812906        -1.061116         3.837101
 H        -0.178226         0.642702         2.260385
 H         0.036442        -0.841990         1.096991
