19
Iteration:    38
 O        -0.835076         0.624989        -0.099492
 C        -1.736384         0.373791         0.967281
 C        -3.143898         0.850164         0.814173
 C        -2.844020        -0.564360         0.516857
 C        -3.262882        -1.644945         1.449214
 C        -2.242096        -2.259295         2.456115
 O        -0.740131        -2.152639         2.168570
 C        -1.181134        -1.192907         2.976254
 C        -1.113526         0.199161         2.294094
 H        -0.503174         1.518561         0.018761
 H        -3.734556         1.094450         1.773344
 H        -3.315439         1.402486        -0.169196
 H        -3.109436        -0.742306        -0.540862
 H        -4.097891        -1.296118         2.076013
 H        -3.687762        -2.402648         0.779344
 H        -2.503675        -3.178502         3.014669
 H        -0.812066        -1.236094         4.047112
 H        -1.360608         1.049391         3.026082
 H         0.033570         0.182115         1.998856
