19
Iteration:  4594
 O        -1.202022         0.953246        -0.218633
 C        -1.609075         0.474740         1.056907
 C        -3.013282         0.992969         1.221998
 C        -2.834539        -0.363302         0.553221
 C        -3.225944        -1.651587         1.203898
 C        -2.366977        -2.010821         2.503834
 O        -1.038650        -2.656525         2.282376
 C        -1.074182        -1.322985         2.835191
 C        -0.633472        -0.129081         2.097968
 H        -0.722875         1.766048        -0.044130
 H        -3.640370         0.916972         2.182918
 H        -3.474292         1.788690         0.678580
 H        -2.816427        -0.365952        -0.524177
 H        -4.268780        -1.748292         1.574221
 H        -3.040735        -2.436170         0.492204
 H        -2.944073        -2.430637         3.270298
 H        -0.649925        -1.377367         3.867282
 H        -0.510379         0.651219         2.817501
 H         0.406671        -0.306086         1.805679
