19
Iteration:  3115
 O        -0.939035         0.913726        -0.087549
 C        -1.647238         0.497224         1.024484
 C        -3.091989         0.972321         1.160736
 C        -2.855062        -0.381855         0.627007
 C        -3.252319        -1.561890         1.480366
 C        -2.301593        -2.079474         2.543832
 O        -1.040824        -2.573063         1.960221
 C        -1.113683        -1.403704         2.792535
 C        -0.787700        -0.033651         2.146505
 H        -0.905863         0.214205        -0.796549
 H        -3.479294         1.200511         2.104192
 H        -3.093413         1.725636         0.352384
 H        -3.022138        -0.550495        -0.478049
 H        -4.186230        -1.169420         1.971563
 H        -3.608318        -2.304676         0.807983
 H        -2.783542        -2.701240         3.193493
 H        -0.469787        -1.400455         3.655849
 H        -0.999342         0.657824         2.940460
 H         0.227601        -0.137825         1.797990
