19
Iteration:  3377charge 0 multiplicity 1
 O        -0.995087         0.810714        -0.075891
 C        -1.683646         0.347093         1.056410
 C        -3.049372         0.948178         1.129767
 C        -2.867319        -0.465419         0.566893
 C        -3.371530        -1.597842         1.422553
 C        -2.294221        -2.003363         2.511466
 O        -1.025621        -2.445611         1.909112
 C        -1.066035        -1.318499         2.806590
 C        -0.717628         0.011326         2.214852
 H        -0.298636         1.473362         0.108476
 H        -3.543872         0.953025         2.123080
 H        -3.120505         1.806216         0.432178
 H        -2.682455        -0.775272        -0.526715
 H        -4.284562        -1.351965         2.053666
 H        -3.788002        -2.535440         1.135668
 H        -2.834441        -2.795028         3.010233
 H        -0.565950        -1.378321         3.793711
 H        -0.924883         0.816480         2.896671
 H         0.373406        -0.024312         1.946153
