19
Iteration:  3131charge 0 multiplicity 1
 O        -0.857486         0.879548        -0.091297
 C        -1.690894         0.342599         0.961096
 C        -2.998524         1.038005         1.239523
 C        -2.905752        -0.407211         0.644729
 C        -3.346749        -1.634233         1.478232
 C        -2.290663        -2.096272         2.444381
 O        -1.075904        -2.527972         1.920957
 C        -1.071718        -1.255991         2.791461
 C        -0.803797         0.065586         2.174823
 H        -0.552160         0.104467        -0.636565
 H        -3.256296         0.888568         2.347610
 H        -3.528390         1.747431         0.609894
 H        -3.158811        -0.445385        -0.391943
 H        -4.261905        -1.563573         2.058032
 H        -3.465669        -2.538409         0.758428
 H        -2.830078        -2.726171         3.320440
 H        -0.830395        -1.500739         3.832753
 H        -0.741995         0.825933         2.997426
 H         0.264991         0.050230         1.827177
