19
Iteration:  1547
 O        -0.871636         1.058511        -0.064277
 C        -1.640303         0.338410         0.880208
 C        -3.089830         0.839752         1.188402
 C        -2.851225        -0.467512         0.522612
 C        -3.216005        -1.766780         1.366609
 C        -2.369466        -1.964198         2.620985
 O        -1.109638        -2.433542         2.101878
 C        -1.097575        -1.281635         2.908885
 C        -0.723348        -0.017934         2.095688
 H        -1.075755         0.652759        -0.923787
 H        -3.489691         0.986549         2.131957
 H        -3.654604         1.587675         0.474143
 H        -3.081501        -0.495575        -0.531496
 H        -4.355670        -1.733366         1.555526
 H        -3.042761        -2.684235         0.730652
 H        -2.860366        -2.617365         3.325350
 H        -0.910414        -1.520251         3.943428
 H        -0.926727         0.882755         2.766404
 H         0.362834        -0.118979         1.747948
