19
Iteration:  2330charge 0 multiplicity 1
 O        -0.868248         0.693499        -0.175106
 C        -1.640998         0.404662         1.006208
 C        -2.937027         1.073173         1.226583
 C        -2.905701        -0.404607         0.748587
 C        -3.404394        -1.643856         1.478382
 C        -2.345365        -2.149083         2.455080
 O        -0.989823        -2.435424         1.832159
 C        -1.114897        -1.274967         2.815444
 C        -0.766948         0.059991         2.293297
 H        -1.408096         1.151568        -0.809552
 H        -3.336391         1.213498         2.218752
 H        -3.337614         1.667894         0.365185
 H        -3.263211        -0.326218        -0.291435
 H        -4.416305        -1.553152         1.984791
 H        -3.592022        -2.416111         0.640914
 H        -2.654321        -2.979404         3.245028
 H        -0.751843        -1.508528         3.807055
 H        -0.956067         0.880477         2.956957
 H         0.245801         0.043618         1.897652
