19
Iteration:  4353
 O        -0.997293         1.080918        -0.120008
 C        -1.720906         0.451665         0.871264
 C        -2.984833         0.929594         1.488620
 C        -2.927855        -0.317209         0.557367
 C        -3.101134        -1.782077         1.187278
 C        -2.351575        -2.015060         2.446237
 O        -1.090804        -2.651434         2.494897
 C        -1.195276        -1.196898         2.821400
 C        -0.639687        -0.240698         1.744715
 H        -0.942102         1.998789         0.157722
 H        -3.268466         0.885618         2.591512
 H        -3.521127         1.662706         0.952594
 H        -3.483039        -0.319400        -0.428736
 H        -4.159518        -2.212995         1.284603
 H        -2.743438        -2.452449         0.410558
 H        -3.000030        -2.066696         3.289375
 H        -0.996905        -0.936113         3.904212
 H         0.041995         0.523403         2.257676
 H        -0.058643        -0.817909         1.005666
