19
Iteration:   716
 O        -0.861072         0.847115        -0.117956
 C        -1.599318         0.337589         0.965383
 C        -3.085415         0.891236         0.969193
 C        -2.789932        -0.515841         0.557704
 C        -3.299088        -1.722601         1.521298
 C        -2.188681        -2.035795         2.517725
 O        -1.018671        -2.407817         1.947568
 C        -1.064654        -1.225298         2.882644
 C        -1.077317         0.172640         2.362185
 H        -0.835252         0.167555        -0.861933
 H        -3.709562         0.995013         1.863705
 H        -3.318761         1.643076         0.135938
 H        -3.073766        -0.755780        -0.480541
 H        -4.299823        -1.533505         1.908679
 H        -3.270960        -2.679735         1.017194
 H        -2.486298        -2.762483         3.266659
 H        -0.670358        -1.244769         3.950511
 H        -1.525902         0.793636         3.095282
 H        -0.065576         0.620888         2.329367
