19
Iteration:   175charge 0 multiplicity 1
 O        -0.890049         0.833786        -0.207412
 C        -1.739691         0.432458         0.874252
 C        -3.164838         0.812530         1.169667
 C        -2.842922        -0.524465         0.491186
 C        -3.066329        -1.846883         1.198224
 C        -2.371877        -1.971907         2.553053
 O        -0.975406        -2.441253         2.376880
 C        -1.150047        -1.128544         2.940469
 C        -0.830467         0.070469         2.125086
 H        -0.693337         1.815541        -0.066502
 H        -3.432120         0.781356         2.216106
 H        -3.787614         1.513300         0.592755
 H        -3.176579        -0.544861        -0.523852
 H        -4.189163        -1.995742         1.222555
 H        -2.592908        -2.620322         0.544785
 H        -2.959679        -2.439709         3.379182
 H        -1.048229        -0.999333         4.017846
 H        -1.047949         1.006348         2.708732
 H         0.180541         0.164009         1.793361
