19
Iteration:  1569
 O        -1.008133         1.158676        -0.098355
 C        -1.650439         0.393685         0.962157
 C        -3.053468         0.852440         1.114672
 C        -2.785590        -0.504355         0.527076
 C        -3.260495        -1.692340         1.391982
 C        -2.364047        -2.025271         2.532842
 O        -1.077415        -2.573217         2.227338
 C        -1.123900        -1.263780         2.863041
 C        -0.745249        -0.004654         2.054499
 H        -0.485677         0.490533        -0.598108
 H        -3.498986         0.903916         2.059837
 H        -3.196249         1.800669         0.487184
 H        -2.871806        -0.670148        -0.535296
 H        -4.353849        -1.675461         1.612149
 H        -3.182890        -2.674396         0.810537
 H        -2.854312        -2.541915         3.353492
 H        -0.735865        -1.347494         3.874428
 H        -0.433545         0.738858         2.842976
 H         0.179306        -0.358531         1.496329
