19
Iteration:  3374
 O        -0.993576         0.795719        -0.080583
 C        -1.667163         0.320901         1.048657
 C        -3.051562         0.969930         1.131884
 C        -2.879219        -0.477918         0.577647
 C        -3.360462        -1.587268         1.444441
 C        -2.294330        -1.995504         2.464152
 O        -1.030158        -2.451398         1.910490
 C        -1.058710        -1.311024         2.832223
 C        -0.730144         0.033960         2.221324
 H        -0.369855         1.489687         0.102604
 H        -3.633514         0.909716         2.047034
 H        -3.057085         1.775894         0.490730
 H        -2.749743        -0.653695        -0.508326
 H        -4.294995        -1.342982         2.022240
 H        -3.744067        -2.614591         1.026579
 H        -2.807002        -2.794121         3.042377
 H        -0.522330        -1.471656         3.723313
 H        -0.849569         0.839569         2.956643
 H         0.309030         0.004210         1.981967
