19
Iteration:    41charge 0 multiplicity 1
 O        -0.824997         0.629761        -0.111069
 C        -1.742076         0.372071         0.955139
 C        -3.150952         0.873289         0.810363
 C        -2.833031        -0.549063         0.544280
 C        -3.244841        -1.674513         1.448292
 C        -2.257247        -2.258839         2.474842
 O        -0.748163        -2.158925         2.153588
 C        -1.162482        -1.177205         2.988895
 C        -1.114192         0.176557         2.307151
 H        -0.628904         1.616114        -0.092747
 H        -3.618033         1.062891         1.728298
 H        -3.295551         1.433264        -0.118123
 H        -3.082310        -0.784012        -0.617640
 H        -4.132890        -1.319227         2.037927
 H        -3.698301        -2.435978         0.733118
 H        -2.568481        -3.154518         3.055673
 H        -0.874486        -1.228104         4.049945
 H        -1.396341         0.971795         3.006593
 H        -0.056065         0.244939         2.007581
