19
Iteration:  1539charge 0 multiplicity 1
 O        -0.829749         1.011951        -0.083174
 C        -1.635210         0.302989         0.911960
 C        -3.099692         0.829038         1.211463
 C        -2.864913        -0.465985         0.570840
 C        -3.256665        -1.717361         1.371753
 C        -2.387484        -2.006124         2.522466
 O        -1.094563        -2.444560         2.106117
 C        -1.107849        -1.237443         2.903075
 C        -0.779966         0.043474         2.078482
 H        -1.120462         0.779245        -0.967678
 H        -3.490366         0.779405         2.231473
 H        -3.307684         1.736527         0.578641
 H        -2.982345        -0.583373        -0.503689
 H        -4.270230        -1.918157         1.518675
 H        -3.006987        -2.648587         0.814178
 H        -2.698493        -2.683027         3.401994
 H        -0.770940        -1.323774         3.938186
 H        -0.833320         0.846317         2.813315
 H         0.258217         0.053307         1.786786
