19
Iteration:   144
 O        -1.065441         0.992968        -0.259241
 C        -1.674971         0.416780         0.954419
 C        -3.002662         0.849806         0.971121
 C        -2.777604        -0.593122         0.484495
 C        -3.201007        -1.783320         1.370088
 C        -2.280385        -2.142878         2.518347
 O        -0.810402        -2.407786         2.361187
 C        -1.346598        -1.165942         2.914671
 C        -0.904672         0.070099         2.206862
 H        -0.146851         1.124540        -0.053601
 H        -3.473825         1.005024         1.961707
 H        -3.266442         1.698346         0.258603
 H        -2.870365        -0.776910        -0.496779
 H        -4.265340        -1.600807         1.697015
 H        -3.406430        -2.605888         0.696060
 H        -2.820911        -2.722152         3.287630
 H        -1.371083        -1.054767         4.027501
 H        -0.793489         0.979475         2.811726
 H         0.091518        -0.133577         1.955811
