19
Iteration:  4685
 O        -1.096673         0.981823        -0.228570
 C        -1.695421         0.507167         0.994535
 C        -3.055554         0.977734         1.185202
 C        -2.811267        -0.426130         0.569595
 C        -3.262877        -1.644549         1.369232
 C        -2.404448        -2.050501         2.512032
 O        -0.964412        -2.615260         2.146581
 C        -1.105903        -1.384067         2.927246
 C        -0.655003        -0.079314         2.129663
 H        -0.788956         1.884852        -0.303881
 H        -3.487998         1.048675         2.160082
 H        -3.241871         1.861666         0.485686
 H        -2.915776        -0.511741        -0.528307
 H        -4.385424        -1.662050         1.677037
 H        -3.234913        -2.355239         0.494619
 H        -2.882870        -2.775580         3.239048
 H        -0.538635        -1.446251         3.874559
 H        -0.631802         0.568291         2.988489
 H         0.372885        -0.195236         1.790438
