19
Iteration:  4952charge 0 multiplicity 1
 O        -1.079582         1.001589        -0.242369
 C        -1.648327         0.369270         1.027383
 C        -3.080573         0.944998         1.235562
 C        -2.876530        -0.385204         0.662791
 C        -3.290833        -1.695493         1.282531
 C        -2.326646        -2.061406         2.490304
 O        -1.003649        -2.546919         2.171456
 C        -1.114403        -1.308940         2.849119
 C        -0.645247        -0.084443         2.098860
 H        -0.453852         1.732117        -0.029493
 H        -3.411819         1.028191         2.321455
 H        -3.378182         1.750148         0.629682
 H        -3.032599        -0.301117        -0.440152
 H        -4.208248        -1.629579         1.876994
 H        -3.319129        -2.330883         0.397742
 H        -2.859599        -2.649335         3.258116
 H        -0.773246        -1.584360         3.813527
 H        -0.313595         0.694161         2.795807
 H         0.272133        -0.241989         1.566297
