19
Iteration:  3925
 O        -0.923737         0.936356        -0.203008
 C        -1.617520         0.379941         0.942818
 C        -2.996712         0.902016         1.285653
 C        -2.848745        -0.461040         0.567848
 C        -3.405518        -1.597430         1.472500
 C        -2.271524        -2.180675         2.377840
 O        -0.998954        -2.571935         2.092072
 C        -1.203983        -1.219854         2.858295
 C        -0.750437         0.021033         2.181297
 H        -1.255243         1.844798        -0.469662
 H        -3.196797         1.111813         2.322413
 H        -3.309957         1.780229         0.690144
 H        -2.994133        -0.252056        -0.582077
 H        -4.355417        -1.413724         1.953140
 H        -3.662073        -2.493407         0.754874
 H        -2.585929        -2.834927         3.164629
 H        -0.874893        -1.250188         3.907152
 H        -0.669355         0.854748         2.818625
 H         0.210526        -0.224425         1.792952
