19
Iteration:  3557charge 0 multiplicity 1
 O        -1.139882         1.138177        -0.102606
 C        -1.678582         0.454756         0.968719
 C        -3.040698         0.888601         1.223449
 C        -2.755256        -0.455955         0.542219
 C        -3.177224        -1.673635         1.269374
 C        -2.386719        -1.998336         2.583099
 O        -1.157628        -2.669226         2.305822
 C        -1.062119        -1.264804         2.848523
 C        -0.619746        -0.178638         1.882257
 H        -0.532712         1.828901         0.220176
 H        -3.517619         0.869238         2.173794
 H        -3.140006         1.881248         0.742242
 H        -3.100706        -0.473839        -0.576157
 H        -4.283847        -1.719435         1.653708
 H        -2.945879        -2.437535         0.540113
 H        -3.029495        -2.387286         3.399822
 H        -0.778996        -1.249616         3.966905
 H         0.008966         0.552976         2.502902
 H         0.118905        -0.543044         1.134433
