19
Iteration:  1356charge 0 multiplicity 1
 O        -0.857643         0.843885        -0.134547
 C        -1.700806         0.366038         0.962707
 C        -3.087465         0.955298         1.070332
 C        -2.861328        -0.473894         0.585598
 C        -3.272569        -1.670736         1.428580
 C        -2.241520        -2.064180         2.459222
 O        -0.943614        -2.443759         2.039877
 C        -1.153348        -1.250455         2.865671
 C        -0.950931         0.085583         2.288889
 H        -0.626008         0.102764        -0.698956
 H        -3.417285         1.176255         2.045426
 H        -3.529068         1.783369         0.486329
 H        -2.915125        -0.637510        -0.475008
 H        -4.196804        -1.494810         2.013771
 H        -3.405827        -2.554822         0.783616
 H        -2.533571        -2.771979         3.232863
 H        -0.685581        -1.319394         3.885557
 H        -1.364310         0.765740         3.097045
 H         0.120528         0.271248         2.024242
