19
Iteration:  3010
 O        -1.035158         0.812510        -0.165370
 C        -1.642900         0.409105         1.033374
 C        -2.894765         1.088611         1.247759
 C        -2.909269        -0.361139         0.698631
 C        -3.318544        -1.697579         1.363300
 C        -2.344998        -2.082569         2.457739
 O        -0.979580        -2.472200         1.956707
 C        -1.125507        -1.304492         2.863572
 C        -0.818016         0.013383         2.179757
 H        -0.710134         0.135502        -0.775962
 H        -3.104535         1.060008         2.291320
 H        -3.158630         1.937937         0.558991
 H        -3.093241        -0.302206        -0.383584
 H        -4.310365        -1.552901         1.729236
 H        -3.323402        -2.599134         0.686232
 H        -2.636368        -3.005674         3.134501
 H        -0.796288        -1.587487         3.863639
 H        -0.824856         0.841689         2.949742
 H         0.243761        -0.059528         1.968015
