19
Iteration:  2939
 O        -0.966375         1.032014        -0.114205
 C        -1.642243         0.321393         0.963601
 C        -2.976079         0.916422         1.223951
 C        -2.889371        -0.389126         0.605452
 C        -3.326361        -1.653701         1.469155
 C        -2.373800        -2.037303         2.504106
 O        -1.121740        -2.473944         1.955140
 C        -1.070732        -1.323635         2.857400
 C        -0.694966        -0.041094         2.133225
 H        -0.387997         0.397264        -0.574435
 H        -3.405574         0.846110         2.275206
 H        -3.397169         1.579688         0.507210
 H        -3.097347        -0.617781        -0.437942
 H        -4.379583        -1.458125         1.914206
 H        -3.368675        -2.525344         0.811941
 H        -2.633190        -2.729429         3.290772
 H        -0.526808        -1.451938         3.894604
 H        -0.677578         0.863250         2.771616
 H         0.365986        -0.246555         1.821241
