19
Iteration:  2692charge 0 multiplicity 1
 O        -1.003642         1.180021        -0.194675
 C        -1.607258         0.401777         0.873536
 C        -2.916566         0.765348         1.499237
 C        -2.928145        -0.372482         0.605621
 C        -3.250300        -1.774930         1.152931
 C        -2.472509        -1.953969         2.523120
 O        -1.135055        -2.525357         2.343734
 C        -1.153682        -1.247070         2.825421
 C        -0.619656        -0.157379         1.907005
 H        -0.305893         0.824681        -0.721973
 H        -2.783893         0.674385         2.503455
 H        -3.498762         1.646474         1.156138
 H        -3.397416        -0.243579        -0.341556
 H        -4.269287        -2.064705         1.421934
 H        -3.052404        -2.592355         0.532600
 H        -2.864743        -2.297575         3.527312
 H        -0.813118        -1.242958         3.816960
 H        -0.236842         0.743578         2.456757
 H         0.214233        -0.755205         1.441010
