19
Iteration:  3791
 O        -1.002021         0.949764        -0.121155
 C        -1.721876         0.427830         0.917276
 C        -2.981152         0.967926         1.393940
 C        -2.877932        -0.403015         0.656460
 C        -3.140531        -1.775694         1.203985
 C        -2.382133        -2.091238         2.433773
 O        -1.071781        -2.583082         2.328180
 C        -1.220720        -1.186199         2.794568
 C        -0.685742        -0.081192         1.950989
 H        -1.058196         1.921522        -0.146599
 H        -2.769445         1.092275         2.502666
 H        -3.256391         1.918973         0.782536
 H        -3.294709        -0.260768        -0.296698
 H        -4.260148        -1.887666         1.282554
 H        -2.715361        -2.464589         0.426342
 H        -3.025270        -2.578342         3.201874
 H        -0.759416        -1.040259         3.815340
 H        -0.187305         0.735468         2.436250
 H         0.026463        -0.521555         1.295831
