19
Iteration:   101
 O        -0.773695         0.924131         0.008431
 C        -1.745402         0.435601         0.886340
 C        -3.200540         0.776740         0.905757
 C        -2.774755        -0.642863         0.422130
 C        -3.196636        -1.780076         1.453846
 C        -2.258896        -1.967720         2.592729
 O        -0.953688        -2.372971         2.121064
 C        -1.174778        -1.159307         2.929181
 C        -0.959122         0.124404         2.244053
 H        -0.843671         0.404851        -0.801967
 H        -3.907635         0.721402         1.772415
 H        -3.707018         1.500870         0.210109
 H        -2.919569        -0.847742        -0.541585
 H        -4.240071        -1.738076         1.799975
 H        -3.094184        -2.724305         0.959691
 H        -2.766621        -2.582474         3.323207
 H        -0.711477        -1.076481         3.928429
 H        -1.115145         0.908538         2.958983
 H         0.082106         0.273857         1.931905
