19
Iteration:  2882
 O        -0.939277         1.122787        -0.076715
 C        -1.666649         0.411274         0.907586
 C        -3.005624         0.963536         1.214116
 C        -2.931436        -0.450678         0.574642
 C        -3.294433        -1.650322         1.448717
 C        -2.372495        -2.014339         2.511216
 O        -1.021848        -2.619192         2.117269
 C        -1.050980        -1.354312         2.826396
 C        -0.779753        -0.114089         2.041231
 H        -0.369035         0.381348        -0.445816
 H        -3.151134         1.246799         2.242565
 H        -3.322228         1.881753         0.557072
 H        -3.274906        -0.366948        -0.444637
 H        -4.380110        -1.333613         1.840050
 H        -3.621129        -2.511028         0.883169
 H        -2.725744        -2.720301         3.245215
 H        -0.797837        -1.584895         3.873290
 H        -0.611035         0.845225         2.565316
 H         0.252554        -0.294037         1.565861
