19
Iteration:  4097
 O        -0.950535         0.883150        -0.189531
 C        -1.618008         0.450936         0.947984
 C        -2.942333         1.014722         1.159729
 C        -2.910884        -0.440188         0.674030
 C        -3.369482        -1.652803         1.396867
 C        -2.307215        -2.166874         2.506442
 O        -0.954188        -2.537078         2.031096
 C        -1.151624        -1.350973         2.813931
 C        -0.811280        -0.011583         2.205759
 H        -1.154907         1.798361        -0.311742
 H        -3.131059         1.216762         2.226523
 H        -3.356280         1.802689         0.459549
 H        -3.101023        -0.543118        -0.455923
 H        -4.344095        -1.445049         1.932692
 H        -3.454411        -2.447657         0.653387
 H        -2.622257        -2.559942         3.481220
 H        -0.810644        -1.292552         3.879187
 H        -1.081065         0.714050         3.082148
 H         0.272525         0.179569         1.938786
