19
Iteration:  3896charge 0 multiplicity 1
 O        -0.959987         0.973141        -0.092855
 C        -1.718207         0.371551         0.982850
 C        -3.063396         0.955062         1.172806
 C        -2.880711        -0.404023         0.499078
 C        -3.257408        -1.603267         1.430677
 C        -2.356083        -2.097968         2.530822
 O        -0.991155        -2.543351         2.106574
 C        -1.113943        -1.319159         2.844480
 C        -0.708021        -0.127113         2.078065
 H        -1.054312         1.921150        -0.055068
 H        -3.479059         1.199053         2.098919
 H        -3.279656         1.815277         0.491101
 H        -2.898231        -0.377640        -0.619185
 H        -4.240595        -1.411326         1.894643
 H        -3.549622        -2.531450         0.817921
 H        -2.668100        -2.743366         3.372614
 H        -0.840318        -1.318834         3.910061
 H        -0.406301         0.748781         2.769388
 H         0.214225        -0.395320         1.450397
