19
Iteration:   178
 O        -0.883773         0.833575        -0.181825
 C        -1.754889         0.411176         0.881379
 C        -3.153987         0.798067         1.183379
 C        -2.866220        -0.529446         0.479347
 C        -3.054278        -1.847203         1.185798
 C        -2.401614        -1.942145         2.546191
 O        -0.962717        -2.448206         2.378021
 C        -1.155280        -1.120494         2.903806
 C        -0.838994         0.084086         2.128685
 H        -0.737517         1.792622        -0.190695
 H        -3.342026         0.789253         2.280919
 H        -3.759038         1.572087         0.554797
 H        -3.084630        -0.510301        -0.538018
 H        -4.162059        -2.073876         1.276804
 H        -2.486509        -2.586269         0.625141
 H        -2.925166        -2.337833         3.441934
 H        -1.003826        -0.989323         4.017685
 H        -1.005717         0.947212         2.771707
 H         0.162537         0.067010         1.736996
