19
Iteration:   321
 O        -1.095518         1.133779        -0.284578
 C        -1.645946         0.462490         0.886061
 C        -3.086950         0.808863         1.296215
 C        -2.822552        -0.527947         0.453749
 C        -2.983149        -1.934427         1.083297
 C        -2.356608        -1.936161         2.474238
 O        -1.088635        -2.575004         2.764302
 C        -1.316542        -1.069424         2.888849
 C        -0.578284        -0.133664         1.915995
 H        -1.166700         2.076021        -0.387861
 H        -3.174321         0.641997         2.451971
 H        -3.637414         1.691425         1.006654
 H        -3.187937        -0.331317        -0.611375
 H        -4.089050        -2.148604         1.224746
 H        -2.458213        -2.716695         0.500932
 H        -3.095191        -2.295016         3.174142
 H        -1.412756        -0.787257         3.945027
 H        -0.115267         0.641740         2.540062
 H         0.166500        -0.657972         1.328569
