19
Iteration:  2840
 O        -0.981728         0.948455        -0.206855
 C        -1.668117         0.414301         0.983407
 C        -2.940326         1.040665         1.391698
 C        -2.921112        -0.360123         0.692992
 C        -3.228154        -1.721194         1.246971
 C        -2.437504        -2.059331         2.427117
 O        -1.011508        -2.555447         2.156826
 C        -1.177487        -1.310996         2.870493
 C        -0.668882        -0.012451         2.061490
 H        -0.995640         0.260153        -0.932066
 H        -3.257051         1.069288         2.411563
 H        -3.505937         1.704892         0.636503
 H        -3.146270        -0.289254        -0.346650
 H        -4.220803        -1.820488         1.655071
 H        -3.121361        -2.531481         0.533264
 H        -2.894637        -2.567719         3.224913
 H        -0.956560        -1.257111         3.989165
 H        -0.359931         0.664184         2.846781
 H         0.254865        -0.313625         1.510845
