19
Iteration:   322charge 0 multiplicity 1
 O        -1.100644         1.132909        -0.283876
 C        -1.642811         0.460262         0.876546
 C        -3.077163         0.814946         1.293231
 C        -2.824552        -0.520467         0.460696
 C        -2.981654        -1.937082         1.083516
 C        -2.359935        -1.949617         2.474862
 O        -1.084653        -2.573944         2.767078
 C        -1.325859        -1.067237         2.888519
 C        -0.571005        -0.129546         1.922857
 H        -1.201768         2.074849        -0.347377
 H        -3.176958         0.644459         2.421777
 H        -3.621241         1.715505         1.013088
 H        -3.212781        -0.345146        -0.645544
 H        -4.083603        -2.153667         1.229322
 H        -2.470622        -2.730328         0.481921
 H        -3.082452        -2.294269         3.177034
 H        -1.438800        -0.788659         3.931887
 H        -0.124242         0.626230         2.526668
 H         0.176251        -0.655889         1.307178
