19
Iteration:  1536charge 0 multiplicity 1
 O        -0.823550         0.987748        -0.084333
 C        -1.639004         0.311254         0.927744
 C        -3.093403         0.844778         1.222332
 C        -2.874254        -0.503288         0.578544
 C        -3.265928        -1.706632         1.352709
 C        -2.373375        -2.025188         2.513298
 O        -1.077179        -2.453120         2.112115
 C        -1.134037        -1.217820         2.876241
 C        -0.801206         0.050285         2.107699
 H        -1.155753         0.812805        -1.012517
 H        -3.419541         0.706573         2.208325
 H        -3.224314         1.815792         0.616454
 H        -3.018684        -0.613235        -0.481439
 H        -4.364098        -1.839159         1.599230
 H        -2.967364        -2.594736         0.711868
 H        -2.734132        -2.615559         3.322604
 H        -0.642327        -1.178004         3.857953
 H        -0.772300         0.918289         2.853134
 H         0.290559         0.087952         1.757851
