19
Iteration:  1992charge 0 multiplicity 1
 O        -1.047999         0.927854        -0.247067
 C        -1.677912         0.297974         0.876647
 C        -2.910142         0.982991         1.415452
 C        -2.931097        -0.349868         0.603531
 C        -3.193406        -1.648538         1.318097
 C        -2.420390        -2.021922         2.501378
 O        -1.036514        -2.539359         2.125579
 C        -1.128211        -1.309285         2.850699
 C        -0.733796        -0.039472         2.113695
 H        -0.092131         0.905411        -0.324500
 H        -3.229572         0.867160         2.418029
 H        -3.269250         1.889414         0.839900
 H        -3.168881        -0.154403        -0.518186
 H        -4.263187        -1.751921         1.606132
 H        -3.237829        -2.517382         0.582272
 H        -2.951230        -2.497853         3.348618
 H        -0.816818        -1.430086         3.947333
 H        -0.612540         0.868821         2.837177
 H         0.331370        -0.247418         1.863395
