19
Iteration:  4288charge 0 multiplicity 1
 O        -1.110631         1.196439        -0.276428
 C        -1.649533         0.430762         0.855286
 C        -2.931667         0.868632         1.420581
 C        -2.846768        -0.455817         0.586741
 C        -3.197844        -1.769640         1.238726
 C        -2.413464        -2.022495         2.525813
 O        -1.193502        -2.646013         2.421790
 C        -1.099522        -1.369631         2.794592
 C        -0.574305        -0.019809         1.916919
 H        -0.374628         1.821262         0.012548
 H        -3.152598         0.677812         2.514380
 H        -3.458336         1.692698         0.968105
 H        -3.221121        -0.340390        -0.461219
 H        -4.301527        -1.965076         1.294713
 H        -2.732282        -2.499271         0.594127
 H        -3.038337        -2.181678         3.377768
 H        -0.852803        -1.481905         3.876756
 H        -0.506263         0.841396         2.688019
 H         0.455341        -0.225917         1.560621
