19
Iteration:  2159charge 0 multiplicity 1
 O        -0.904782         0.759161        -0.182568
 C        -1.647168         0.392977         1.020819
 C        -2.929528         1.101088         1.236284
 C        -2.886314        -0.331616         0.757486
 C        -3.349830        -1.629780         1.439522
 C        -2.307768        -2.197067         2.406838
 O        -1.001754        -2.484186         1.939866
 C        -1.132281        -1.283908         2.773447
 C        -0.823969         0.052930         2.188725
 H        -1.513185         0.413761        -0.871122
 H        -3.229795         1.018224         2.327875
 H        -3.291327         1.803582         0.447118
 H        -3.049386        -0.483528        -0.340676
 H        -4.195353        -1.561850         2.157823
 H        -3.710988        -2.385914         0.758101
 H        -2.564687        -2.747288         3.266189
 H        -0.812120        -1.416643         3.833619
 H        -1.094078         0.662662         3.115155
 H         0.301715         0.133937         2.118739
