19
Iteration:  1768charge 0 multiplicity 1
 O        -1.163076         1.173634        -0.224540
 C        -1.559004         0.343191         0.890448
 C        -3.035998         0.868825         1.412157
 C        -2.773939        -0.378841         0.549026
 C        -3.133711        -1.752893         1.111673
 C        -2.403821        -1.949965         2.563977
 O        -1.204202        -2.679047         2.508595
 C        -1.168219        -1.220124         2.787680
 C        -0.534241        -0.216290         1.886400
 H        -0.803022         1.964994         0.266533
 H        -3.021321         0.831446         2.541715
 H        -3.470642         1.731997         0.759398
 H        -3.214355        -0.362775        -0.468313
 H        -4.217208        -1.734817         1.223823
 H        -2.673750        -2.604196         0.517404
 H        -3.056463        -1.992508         3.430315
 H        -1.105607        -1.033095         3.865814
 H        -0.142833         0.633198         2.537578
 H         0.283669        -0.589093         1.186093
