19
Iteration:  3265charge 0 multiplicity 1
 O        -0.826077         0.883403        -0.011715
 C        -1.675229         0.392140         1.026235
 C        -3.043462         0.885611         1.106097
 C        -2.785796        -0.547026         0.676654
 C        -3.389241        -1.592383         1.567136
 C        -2.308998        -2.092753         2.416705
 O        -1.117556        -2.428984         1.868437
 C        -1.044057        -1.336269         2.758452
 C        -0.755529         0.102783         2.206964
 H        -1.409885         0.968710        -0.817471
 H        -3.618455         1.086542         1.958555
 H        -3.393204         1.624135         0.433132
 H        -3.022988        -0.568128        -0.392030
 H        -4.236110        -1.204367         2.177372
 H        -3.781494        -2.412144         0.946630
 H        -2.746704        -2.747741         3.186603
 H        -0.672077        -1.496401         3.721118
 H        -0.815530         0.802677         3.022785
 H         0.237814         0.020998         1.771016
