19
Iteration:  2813charge 0 multiplicity 1
 O        -1.067737         0.973854        -0.236816
 C        -1.601977         0.332711         0.938624
 C        -2.888681         0.848632         1.471104
 C        -2.885750        -0.362396         0.627201
 C        -3.200113        -1.632638         1.240235
 C        -2.447710        -2.053706         2.443902
 O        -1.088670        -2.546710         2.145422
 C        -1.222248        -1.215629         2.925247
 C        -0.645087         0.030687         2.035857
 H        -0.723758         0.276887        -0.882481
 H        -3.058471         0.739474         2.584280
 H        -3.207342         1.749715         1.077089
 H        -3.090531        -0.195658        -0.459013
 H        -4.385160        -1.916384         1.455191
 H        -2.944788        -2.536432         0.566181
 H        -2.955439        -2.636063         3.299096
 H        -0.912954        -1.253840         3.946439
 H        -0.505559         0.847427         2.813876
 H         0.383132        -0.183224         1.689965
