19
Iteration:  3415
 O        -0.888136         1.041529        -0.178685
 C        -1.650338         0.417798         0.946703
 C        -3.052236         0.957546         1.136102
 C        -2.951160        -0.464030         0.600707
 C        -3.254883        -1.668742         1.528503
 C        -2.305028        -2.162732         2.522803
 O        -1.088881        -2.634639         1.982114
 C        -1.151403        -1.249904         2.906772
 C        -0.766738        -0.006487         2.087631
 H        -0.189465         1.513448         0.351495
 H        -3.320739         1.390997         2.116252
 H        -3.354841         1.639293         0.373673
 H        -2.986395        -0.621559        -0.441818
 H        -4.087588        -1.306497         2.086504
 H        -3.556634        -2.442187         0.812296
 H        -2.621001        -2.886467         3.281576
 H        -0.766635        -1.422716         3.931311
 H        -0.793851         0.806716         2.907568
 H         0.291242         0.022495         1.780628
