19
Iteration:   206
 O        -0.978288         0.959665        -0.105374
 C        -1.719551         0.293393         0.909488
 C        -3.072362         0.830032         1.209008
 C        -2.866367        -0.538619         0.506098
 C        -3.022070        -1.890377         1.113349
 C        -2.388256        -1.983203         2.495476
 O        -1.060730        -2.406747         2.451387
 C        -1.218599        -1.051032         2.970937
 C        -0.678255         0.031630         2.021086
 H        -1.496155         1.342991        -0.804604
 H        -3.453102         0.805366         2.202228
 H        -3.431099         1.581429         0.569262
 H        -3.152014        -0.547658        -0.594944
 H        -4.045224        -2.238432         1.147399
 H        -2.379131        -2.586857         0.519372
 H        -2.926725        -2.345104         3.372863
 H        -1.128080        -0.879556         4.029283
 H        -0.694650         1.015962         2.585254
 H         0.322482        -0.204138         1.563804
