19
Iteration:  4065charge 0 multiplicity 1
 O        -0.905683         0.753119        -0.086099
 C        -1.690140         0.489726         1.048641
 C        -3.113795         0.939231         1.158258
 C        -2.882429        -0.410863         0.599785
 C        -3.241230        -1.604408         1.413060
 C        -2.300987        -2.030845         2.575969
 O        -1.104051        -2.508031         1.912485
 C        -1.012334        -1.340995         2.817860
 C        -0.774683        -0.008209         2.141509
 H        -0.830265         1.693813        -0.359825
 H        -3.471441         0.870767         2.190934
 H        -3.529653         1.863403         0.663785
 H        -2.832313        -0.677761        -0.524461
 H        -4.362070        -1.556669         1.681129
 H        -3.264124        -2.436082         0.739697
 H        -2.739359        -2.439766         3.465183
 H        -0.537483        -1.459596         3.864304
 H        -0.958800         0.733990         3.031882
 H         0.274422         0.165139         1.774270
