19
Iteration:  2708charge 0 multiplicity 1
 O        -1.045511         1.284023        -0.093568
 C        -1.606793         0.328574         0.835345
 C        -2.929240         0.843049         1.420316
 C        -2.895767        -0.509082         0.572093
 C        -3.193354        -1.742591         1.306944
 C        -2.408930        -1.922018         2.526686
 O        -1.217053        -2.634078         2.320128
 C        -1.147594        -1.222275         2.796231
 C        -0.553035        -0.159207         1.848264
 H        -0.529638         0.598939        -0.572319
 H        -3.326205         0.715080         2.528874
 H        -3.333377         1.722112         0.947407
 H        -3.261867        -0.212001        -0.473388
 H        -4.296564        -1.680784         1.392493
 H        -3.033903        -2.692339         0.635929
 H        -3.051870        -2.327668         3.326354
 H        -0.900467        -1.046387         3.904694
 H        -0.260711         0.682414         2.476974
 H         0.409712        -0.457341         1.360529
