19
Iteration:  2903charge 0 multiplicity 1
 O        -1.028455         1.099248        -0.117544
 C        -1.563356         0.351495         0.997219
 C        -2.983618         0.891183         1.204929
 C        -2.856018        -0.483886         0.596186
 C        -3.341899        -1.601004         1.482478
 C        -2.340045        -2.101585         2.548849
 O        -1.145631        -2.544954         2.045488
 C        -1.136757        -1.285101         2.738197
 C        -0.616461        -0.038368         2.079883
 H        -0.123102         0.745090        -0.281341
 H        -3.642579         0.763916         2.012480
 H        -3.473975         1.765432         0.631825
 H        -2.743110        -0.485056        -0.465527
 H        -4.381958        -1.304082         1.971956
 H        -3.674333        -2.444049         0.870478
 H        -2.835514        -2.646135         3.380196
 H        -0.738413        -1.630121         3.703637
 H        -0.561846         0.834669         2.731507
 H         0.418125        -0.164971         1.638722
