19
Iteration:  2760charge 0 multiplicity 1
 O        -1.026631         1.242223        -0.038103
 C        -1.637966         0.423719         0.901733
 C        -3.104022         0.945139         1.180080
 C        -2.886759        -0.404361         0.551866
 C        -3.172159        -1.658143         1.389960
 C        -2.330876        -2.081669         2.516863
 O        -1.115909        -2.698702         2.319013
 C        -1.146830        -1.226054         2.836681
 C        -0.624747        -0.224667         1.875528
 H        -0.295170         0.691969        -0.465403
 H        -3.519342         0.896643         2.247496
 H        -3.421602         1.846630         0.751120
 H        -3.166010        -0.336831        -0.537121
 H        -4.227662        -1.607777         1.683228
 H        -3.392309        -2.474612         0.715610
 H        -2.904488        -2.310914         3.510302
 H        -0.704777        -1.167484         3.821949
 H         0.105322         0.381622         2.468369
 H         0.045596        -0.804864         1.102827
