19
Iteration:  4889charge 0 multiplicity 1
 O        -1.021338         0.949717        -0.204381
 C        -1.608669         0.331974         0.976978
 C        -2.937591         0.903505         1.271202
 C        -2.894075        -0.448112         0.609477
 C        -3.300511        -1.675595         1.395034
 C        -2.337573        -2.102272         2.413286
 O        -1.008723        -2.509523         2.079023
 C        -1.147574        -1.293975         2.814663
 C        -0.737419         0.027313         2.147036
 H        -1.154778         1.887341        -0.030647
 H        -3.173785         0.880959         2.413552
 H        -3.200341         1.845287         0.834560
 H        -2.998189        -0.409904        -0.470527
 H        -4.258477        -1.206415         1.827159
 H        -3.590587        -2.636269         0.956693
 H        -2.830492        -2.648172         3.176783
 H        -0.854151        -1.284278         3.899542
 H        -0.791464         0.882354         2.851575
 H         0.301986        -0.185441         1.820428
