19
Iteration:  3843charge 0 multiplicity 1
 O        -1.053173         1.031481        -0.177578
 C        -1.663399         0.383924         0.914345
 C        -2.921651         0.901099         1.357021
 C        -2.829642        -0.411464         0.569813
 C        -3.265675        -1.723003         1.285416
 C        -2.409892        -1.995885         2.488371
 O        -1.023579        -2.614791         2.241972
 C        -1.148072        -1.302081         2.811902
 C        -0.737090        -0.030355         2.008782
 H        -0.244595         1.499788         0.028320
 H        -3.318944         0.552369         2.320297
 H        -3.436673         1.797077         0.866791
 H        -2.950390        -0.358014        -0.514057
 H        -4.308080        -1.524574         1.662768
 H        -3.242800        -2.513101         0.601281
 H        -2.925839        -2.423131         3.383587
 H        -0.811919        -1.214072         3.887647
 H        -0.739843         0.853097         2.662142
 H         0.313042        -0.117013         1.656521
