19
Iteration:   291
 O        -1.062355         1.075545        -0.087735
 C        -1.693993         0.306390         0.846427
 C        -3.199105         0.721913         1.247826
 C        -2.819686        -0.535019         0.414522
 C        -2.866386        -1.832618         1.167334
 C        -2.439858        -1.812417         2.635756
 O        -1.167109        -2.478787         2.574146
 C        -1.192347        -1.062349         2.854719
 C        -0.618073        -0.127526         1.808797
 H        -0.559610         1.848347         0.310217
 H        -3.392733         0.391052         2.260793
 H        -3.682778         1.632586         0.946801
 H        -3.243133        -0.478381        -0.693211
 H        -3.908762        -2.197208         1.067088
 H        -2.213839        -2.596736         0.685019
 H        -3.086123        -2.227410         3.375383
 H        -0.940468        -0.830868         3.879053
 H        -0.203525         0.709743         2.292421
 H         0.249573        -0.604399         1.217498
