19
Iteration:  4185charge 0 multiplicity 1
 O        -0.995421         1.009513        -0.325725
 C        -1.673388         0.387586         0.929297
 C        -3.006620         0.956250         1.291286
 C        -2.846263        -0.471177         0.635194
 C        -3.211950        -1.673422         1.374430
 C        -2.349871        -1.984657         2.546249
 O        -1.099824        -2.565558         2.116558
 C        -1.094951        -1.357544         2.807323
 C        -0.730476        -0.029554         2.181409
 H        -0.748989         1.834316         0.109496
 H        -3.306097         0.961684         2.367575
 H        -3.390620         1.675242         0.631431
 H        -3.058209        -0.464890        -0.458029
 H        -4.307968        -1.787311         1.558722
 H        -3.074303        -2.518844         0.667770
 H        -2.809792        -2.623265         3.327371
 H        -0.846075        -1.515037         3.864622
 H        -0.863394         0.598794         3.097898
 H         0.295306        -0.103570         1.803982
