19
Iteration:   222charge 0 multiplicity 1
 O        -1.001050         1.158041        -0.210151
 C        -1.644589         0.428946         0.818303
 C        -3.099312         0.761343         1.219321
 C        -2.788484        -0.533999         0.469794
 C        -3.056361        -1.890724         1.150447
 C        -2.400824        -2.010256         2.518735
 O        -0.962822        -2.439811         2.581904
 C        -1.314145        -1.109245         2.981067
 C        -0.722065        -0.067027         2.028374
 H        -1.418145         0.714874        -0.971171
 H        -3.297356         0.867368         2.331496
 H        -3.678245         1.555043         0.631115
 H        -3.095635        -0.457071        -0.547118
 H        -4.186805        -1.902548         1.323928
 H        -2.765442        -2.711831         0.491102
 H        -3.050520        -2.619771         3.169370
 H        -1.148291        -0.989467         4.084454
 H        -0.330289         0.805272         2.551607
 H         0.112971        -0.597951         1.586062
