19
Iteration:   271
 O        -1.108748         1.247403        -0.132242
 C        -1.652101         0.308517         0.856899
 C        -3.053392         0.733551         1.187091
 C        -2.921607        -0.590020         0.456641
 C        -3.087918        -1.918604         1.132329
 C        -2.358516        -1.863584         2.538224
 O        -1.047552        -2.473422         2.650410
 C        -1.184594        -1.092540         2.931726
 C        -0.656884        -0.161681         1.876538
 H        -0.247365         1.544914         0.242494
 H        -3.596971         0.777114         2.054746
 H        -3.264526         1.572272         0.520217
 H        -3.117848        -0.503254        -0.653201
 H        -4.116101        -2.173479         1.215650
 H        -2.502074        -2.616139         0.497975
 H        -3.058918        -2.009192         3.362661
 H        -1.128868        -0.923595         3.988940
 H        -0.175860         0.695168         2.396933
 H         0.085354        -0.637782         1.162095
