19
Iteration:  2514
 O        -0.956873         0.999121        -0.152746
 C        -1.677091         0.421713         0.867241
 C        -3.006569         1.049069         1.316568
 C        -2.966991        -0.349640         0.708574
 C        -3.168211        -1.728659         1.254198
 C        -2.381265        -2.018889         2.488698
 O        -1.012041        -2.700984         2.203473
 C        -1.117723        -1.291569         2.813690
 C        -0.774323        -0.089749         2.084192
 H        -1.041669         0.377685        -0.864749
 H        -3.222479         1.340490         2.364630
 H        -3.217511         1.848066         0.517173
 H        -3.489917        -0.232425        -0.298915
 H        -4.160915        -1.624226         1.724672
 H        -3.129909        -2.499367         0.503284
 H        -2.821573        -2.439460         3.420965
 H        -0.538220        -1.211482         3.783447
 H        -0.713762         0.860673         2.751372
 H         0.349409        -0.011920         1.708418
