19
Iteration:  1055
 O        -1.217134         1.238552        -0.249000
 C        -1.663511         0.411043         0.826192
 C        -2.993683         0.852075         1.396800
 C        -2.787893        -0.451391         0.437636
 C        -2.931345        -1.814866         1.048517
 C        -2.394056        -1.909291         2.534538
 O        -1.109905        -2.633242         2.736276
 C        -1.222704        -1.193935         2.994246
 C        -0.685192        -0.247623         1.758092
 H        -0.972863         2.084946         0.125329
 H        -3.216989         0.573788         2.480369
 H        -3.357655         1.758276         0.916872
 H        -3.316240        -0.339619        -0.493197
 H        -4.003059        -2.137954         0.926103
 H        -2.260161        -2.504984         0.528270
 H        -3.089274        -2.159859         3.349051
 H        -1.046107        -0.993771         3.978140
 H         0.194715         0.445050         2.050771
 H        -0.165000        -1.067607         1.219684
