19
Iteration:  2877charge 0 multiplicity 1
 O        -0.917363         1.108545        -0.073887
 C        -1.695000         0.399478         0.896809
 C        -2.964789         1.031826         1.220341
 C        -2.975206        -0.428700         0.577413
 C        -3.277424        -1.658086         1.430582
 C        -2.306836        -2.020235         2.543326
 O        -1.006725        -2.583609         2.147598
 C        -1.101461        -1.412841         2.807609
 C        -0.796327        -0.132342         2.023728
 H        -0.472825         0.386218        -0.547916
 H        -3.325773         1.212054         2.271028
 H        -3.369412         1.782816         0.645317
 H        -3.223930        -0.267480        -0.500764
 H        -4.221660        -1.423191         1.820997
 H        -3.540958        -2.593687         0.848933
 H        -2.863166        -2.730176         3.246658
 H        -0.825855        -1.606325         3.843309
 H        -0.678730         0.843349         2.513038
 H         0.120559        -0.255393         1.502313
