19
Iteration:  1053
 O        -1.213541         1.220118        -0.247074
 C        -1.690883         0.410353         0.831433
 C        -2.986832         0.832461         1.405984
 C        -2.790821        -0.443090         0.445901
 C        -2.924894        -1.807347         1.018706
 C        -2.395289        -1.902264         2.544406
 O        -1.107678        -2.646533         2.728468
 C        -1.217902        -1.185054         2.994692
 C        -0.674751        -0.234214         1.765640
 H        -0.988843         2.104055         0.067188
 H        -3.193731         0.555576         2.458357
 H        -3.340095         1.762341         0.873585
 H        -3.342875        -0.292285        -0.490797
 H        -3.979152        -2.072153         0.891674
 H        -2.242852        -2.535227         0.570060
 H        -3.135436        -2.085691         3.357405
 H        -1.017129        -0.960131         4.051377
 H         0.153360         0.453159         2.047524
 H        -0.202677        -1.063693         1.220401
