19
Iteration:   418charge 0 multiplicity 1
 O        -1.131814         1.117737        -0.215632
 C        -1.680966         0.365408         0.881232
 C        -3.067813         0.772724         1.136194
 C        -2.841217        -0.529052         0.432059
 C        -3.030346        -1.839696         1.191343
 C        -2.353107        -1.980117         2.588688
 O        -1.100982        -2.536027         2.557700
 C        -1.178216        -1.106016         3.010194
 C        -0.650194        -0.044073         1.918244
 H        -0.824224         2.011166         0.008009
 H        -3.509798         0.755213         2.173917
 H        -3.326571         1.786531         0.659481
 H        -3.003396        -0.569141        -0.704814
 H        -4.064438        -2.254528         1.129247
 H        -2.438148        -2.532598         0.572782
 H        -3.087907        -2.484325         3.285029
 H        -0.958230        -0.901009         4.069980
 H        -0.334377         0.816129         2.660744
 H         0.289807        -0.513095         1.602357
