19
Iteration:  1697charge 0 multiplicity 1
 O        -0.978671         1.218354        -0.094041
 C        -1.619945         0.388457         0.849258
 C        -2.985962         0.954346         1.352512
 C        -2.877669        -0.430910         0.499717
 C        -3.202269        -1.819563         1.194155
 C        -2.369107        -2.062848         2.542867
 O        -1.064325        -2.603783         2.468511
 C        -1.227407        -1.176066         2.828450
 C        -0.655231        -0.189038         1.889539
 H        -1.339936         0.952266        -0.972360
 H        -3.011296         0.905645         2.390169
 H        -3.591865         1.783837         0.894706
 H        -3.300890        -0.306533        -0.491059
 H        -4.287858        -1.827823         1.411708
 H        -2.922001        -2.563753         0.496179
 H        -3.084095        -2.400824         3.344736
 H        -1.122789        -0.939270         3.911013
 H        -0.097479         0.577337         2.428767
 H         0.105552        -0.888462         1.545896
