19
Iteration:  2893charge 0 multiplicity 1
 O        -0.977292         1.111801        -0.087772
 C        -1.637006         0.374200         0.923598
 C        -3.034986         0.899381         1.203728
 C        -2.858891        -0.447698         0.595188
 C        -3.386558        -1.597979         1.437044
 C        -2.344151        -2.077720         2.515933
 O        -1.085713        -2.614969         2.062061
 C        -1.098707        -1.314228         2.827965
 C        -0.663711        -0.038242         2.062818
 H        -0.148159         0.652700        -0.420623
 H        -3.287657         0.944388         2.260349
 H        -3.284007         1.744116         0.460681
 H        -3.179474        -0.605944        -0.410510
 H        -4.323956        -1.313162         2.092691
 H        -3.536242        -2.447773         0.792011
 H        -2.834896        -2.570700         3.353249
 H        -0.562798        -1.205650         3.786838
 H        -0.505236         0.633848         2.912351
 H         0.357154        -0.259313         1.601984
