19
Iteration:  3009charge 0 multiplicity 1
 O        -1.033430         0.815620        -0.172235
 C        -1.635223         0.418827         1.027939
 C        -2.888514         1.098158         1.254215
 C        -2.919691        -0.369124         0.686505
 C        -3.316100        -1.689064         1.363404
 C        -2.344056        -2.093588         2.462534
 O        -0.972974        -2.478626         1.957593
 C        -1.121286        -1.298449         2.868061
 C        -0.827931         0.010818         2.190338
 H        -0.748604         0.098679        -0.799009
 H        -3.144995         1.070917         2.275360
 H        -3.181051         1.957287         0.569112
 H        -3.098007        -0.293953        -0.423459
 H        -4.329962        -1.604851         1.765984
 H        -3.325014        -2.592858         0.660502
 H        -2.661843        -3.009178         3.155265
 H        -0.807672        -1.594523         3.867290
 H        -0.789301         0.821679         2.988688
 H         0.225819        -0.078415         1.951693
