19
Iteration:   883charge 0 multiplicity 1
 O        -0.947329         0.857644        -0.182444
 C        -1.654855         0.416136         0.990985
 C        -3.013449         0.905694         1.109420
 C        -2.845394        -0.477102         0.619957
 C        -3.307137        -1.766927         1.434164
 C        -2.342002        -2.201923         2.418111
 O        -0.897019        -2.402550         2.250073
 C        -1.267907        -1.239125         2.778280
 C        -0.741462         0.087013         2.123860
 H        -1.255614         1.785973        -0.373227
 H        -3.323937         0.989822         2.137343
 H        -3.390282         1.773346         0.475085
 H        -2.752740        -0.578005        -0.483629
 H        -4.276180        -1.505910         1.866130
 H        -3.516491        -2.543532         0.675200
 H        -2.834899        -2.700088         3.234947
 H        -1.254243        -1.025962         3.970204
 H        -0.679767         0.898689         2.825108
 H         0.274000         0.021821         1.710549
