19
Iteration:  3633charge 0 multiplicity 1
 O        -1.129493         1.022450        -0.291249
 C        -1.637389         0.472542         0.914081
 C        -2.959576         0.918728         1.500333
 C        -2.895990        -0.333650         0.620310
 C        -3.073214        -1.670797         1.163732
 C        -2.436537        -2.037564         2.378484
 O        -1.028230        -2.625820         2.445621
 C        -1.239041        -1.217269         2.868624
 C        -0.628161        -0.241541         1.979711
 H        -0.996614         1.996969        -0.180996
 H        -3.166287         1.175304         2.485421
 H        -3.461270         1.599913         0.805037
 H        -3.337823        -0.229080        -0.419669
 H        -4.128645        -2.079853         1.152089
 H        -2.497047        -2.230205         0.446047
 H        -3.091188        -2.477415         3.132484
 H        -1.071582        -1.264288         3.949674
 H         0.016786         0.352079         2.515037
 H         0.095613        -0.785441         1.365547
