19
Iteration:  3008charge 0 multiplicity 1
 O        -1.030744         0.819283        -0.179687
 C        -1.627916         0.426890         1.020703
 C        -2.883532         1.107716         1.259568
 C        -2.929954        -0.376595         0.673464
 C        -3.313369        -1.680636         1.363495
 C        -2.342259        -2.106450         2.467806
 O        -0.966947        -2.484253         1.958898
 C        -1.118509        -1.294112         2.871494
 C        -0.836561         0.008750         2.202924
 H        -0.790992         0.064024        -0.810141
 H        -3.191568         1.089287         2.272969
 H        -3.201785         1.966105         0.588988
 H        -3.101087        -0.289967        -0.453395
 H        -4.351870        -1.657957         1.805046
 H        -3.326763        -2.574375         0.638480
 H        -2.685609        -2.992033         3.165772
 H        -0.813984        -1.594376         3.873223
 H        -0.756832         0.796384         3.021691
 H         0.213221        -0.096290         1.929406
