19
Iteration:  3686charge 0 multiplicity 1
 O        -1.051687         1.146637        -0.131950
 C        -1.652652         0.381764         0.787193
 C        -3.027858         0.804031         1.461329
 C        -2.910409        -0.385328         0.612045
 C        -3.071487        -1.735741         1.174125
 C        -2.405316        -1.916865         2.447595
 O        -1.097485        -2.654596         2.437420
 C        -1.153139        -1.165310         2.839938
 C        -0.680103        -0.233666         1.849577
 H        -0.305226         1.613757         0.319507
 H        -3.116230         0.615549         2.499956
 H        -3.347291         1.810566         1.120083
 H        -3.368255        -0.386889        -0.379485
 H        -4.149402        -1.714270         1.195110
 H        -2.905879        -2.541589         0.441772
 H        -3.134873        -2.190444         3.220779
 H        -0.945158        -1.098068         3.918142
 H        -0.306617         0.715305         2.335991
 H         0.175208        -0.593526         1.200787
