19
Iteration:   409
 O        -1.136020         1.071580        -0.226269
 C        -1.698067         0.341228         0.932922
 C        -3.104488         0.778225         1.180086
 C        -2.875907        -0.517446         0.445923
 C        -2.973052        -1.853237         1.135953
 C        -2.354285        -1.849146         2.524309
 O        -1.095569        -2.547190         2.572970
 C        -1.159459        -1.118907         2.935271
 C        -0.678343        -0.065405         2.022466
 H        -0.666186         1.793470         0.230925
 H        -3.540357         0.623918         2.138968
 H        -3.375594         1.645164         0.505017
 H        -2.841499        -0.529359        -0.708632
 H        -4.035905        -2.208903         1.248682
 H        -2.337407        -2.530811         0.554204
 H        -2.963477        -2.085089         3.349067
 H        -0.917656        -0.941355         3.968056
 H        -0.199790         0.831521         2.524480
 H         0.098852        -0.481569         1.346298
