19
Iteration:   109
 O        -0.818194         0.972861        -0.012692
 C        -1.724342         0.388217         0.921015
 C        -3.206816         0.718848         0.872376
 C        -2.854796        -0.632469         0.436708
 C        -3.175156        -1.706012         1.395782
 C        -2.260576        -2.042936         2.577624
 O        -0.926301        -2.377101         2.161688
 C        -1.203876        -1.145722         2.987578
 C        -0.918619         0.175115         2.213062
 H        -0.703261         0.326247        -0.706848
 H        -3.710290         0.729693         1.839408
 H        -3.378351         1.464053         0.192965
 H        -2.986303        -0.858883        -0.659574
 H        -4.173010        -1.483865         1.868968
 H        -3.219947        -2.666294         0.832215
 H        -2.590376        -2.692929         3.388040
 H        -0.935605        -1.248382         4.037985
 H        -0.884006         0.934850         2.983893
 H         0.035236         0.006167         1.810760
