19
Iteration:   209charge 0 multiplicity 1
 O        -0.994049         0.992021        -0.119116
 C        -1.718692         0.311980         0.892044
 C        -3.076608         0.819454         1.220617
 C        -2.848425        -0.542963         0.482114
 C        -3.029779        -1.874039         1.109552
 C        -2.371820        -1.998771         2.493689
 O        -1.057376        -2.393261         2.475146
 C        -1.246425        -1.081046         2.999494
 C        -0.653987         0.010714         2.004212
 H        -1.431681         1.285312        -0.953693
 H        -3.380555         0.873673         2.264227
 H        -3.527500         1.571291         0.466175
 H        -3.132009        -0.513857        -0.489252
 H        -4.111443        -2.254138         1.126759
 H        -2.474124        -2.651450         0.554303
 H        -2.914957        -2.376379         3.399052
 H        -1.132833        -0.921824         4.103333
 H        -0.609394         0.950922         2.647970
 H         0.292711        -0.193177         1.594692
