19
Iteration:  1204
 O        -0.980113         0.937243        -0.119977
 C        -1.748774         0.312682         0.914963
 C        -2.998984         0.882356         1.331425
 C        -2.930208        -0.528992         0.478191
 C        -3.147465        -1.811137         1.189933
 C        -2.356837        -1.964489         2.475056
 O        -1.003707        -2.460278         2.318710
 C        -1.197674        -1.090128         2.972368
 C        -0.713953        -0.034314         1.952220
 H        -0.649282         1.757882         0.243793
 H        -3.341962         0.657872         2.389649
 H        -3.426663         1.664869         0.729949
 H        -3.012963        -0.388341        -0.591762
 H        -4.237883        -1.959997         1.397987
 H        -3.015875        -2.640612         0.408040
 H        -2.890319        -2.440217         3.335949
 H        -1.040087        -0.944418         4.149841
 H        -0.332234         0.923536         2.417363
 H         0.217839        -0.364528         1.389829
