19
Iteration:  1295charge 0 multiplicity 1
 O        -0.754869         0.836431        -0.064254
 C        -1.749258         0.416237         0.943761
 C        -3.173290         0.933607         1.093732
 C        -2.901641        -0.521139         0.555939
 C        -3.276956        -1.692433         1.400604
 C        -2.278354        -2.171546         2.522842
 O        -0.939649        -2.364436         2.137656
 C        -1.194353        -1.192792         2.888175
 C        -0.814360         0.035405         2.116652
 H        -1.115990         1.643069        -0.458539
 H        -3.506393         1.044034         2.126293
 H        -3.531090         1.592090         0.252811
 H        -3.152499        -0.660532        -0.527099
 H        -4.336152        -1.481532         1.775262
 H        -3.341897        -2.669978         0.836666
 H        -2.668600        -3.049226         3.072215
 H        -0.723478        -1.222071         3.883914
 H        -0.587188         0.865453         2.736626
 H         0.148751        -0.209281         1.688729
