19
Iteration:  2782
 O        -0.989421         1.156624        -0.088707
 C        -1.634565         0.388248         0.894366
 C        -2.942299         0.920130         1.363959
 C        -2.913607        -0.433586         0.555682
 C        -3.285004        -1.766888         1.335161
 C        -2.459450        -2.002731         2.519549
 O        -1.019875        -2.562973         2.270155
 C        -1.141682        -1.282229         2.830138
 C        -0.696258        -0.174721         1.881472
 H        -0.306800         0.614804        -0.452852
 H        -3.111951         1.231710         2.451654
 H        -3.288066         1.746831         0.792351
 H        -3.147321        -0.282277        -0.547928
 H        -4.392467        -1.741198         1.467264
 H        -3.298924        -2.565034         0.602993
 H        -3.024479        -2.514018         3.397622
 H        -0.779559        -1.139673         3.853976
 H        -0.458297         0.687920         2.573015
 H         0.232229        -0.222086         1.218402
