19
Iteration:  3252
 O        -0.774587         1.012957        -0.075720
 C        -1.598465         0.381116         0.991153
 C        -3.102214         0.897617         1.135668
 C        -2.841808        -0.530834         0.679032
 C        -3.409932        -1.577567         1.585731
 C        -2.335012        -2.045123         2.562149
 O        -1.063875        -2.511103         1.801481
 C        -1.109176        -1.301034         2.771265
 C        -0.822868        -0.017867         2.197082
 H        -1.198393         0.937020        -0.925421
 H        -3.326876         1.078528         2.143569
 H        -3.341751         1.438084         0.203041
 H        -2.815872        -0.909823        -0.345809
 H        -4.324306        -1.181654         2.034834
 H        -3.700354        -2.522397         0.976074
 H        -2.431648        -2.769862         3.396609
 H        -0.660211        -1.573439         3.699661
 H        -0.934163         0.731030         2.988223
 H         0.193228         0.162895         1.963410
