19
Iteration:  4239charge 0 multiplicity 1
 O        -0.973860         0.962992        -0.093644
 C        -1.655716         0.401765         0.923454
 C        -3.074938         0.929040         1.304267
 C        -2.934829        -0.330652         0.580788
 C        -3.327275        -1.736469         1.250669
 C        -2.335431        -2.033095         2.528017
 O        -0.950945        -2.512180         2.269789
 C        -1.171566        -1.213492         2.857204
 C        -0.604131        -0.196000         1.927707
 H        -1.251287         1.863128        -0.061416
 H        -3.458667         0.947411         2.330413
 H        -3.368621         1.760811         0.673833
 H        -3.136134        -0.143552        -0.480544
 H        -4.328373        -1.576044         1.672508
 H        -3.354616        -2.572692         0.474668
 H        -2.815395        -2.840605         3.131006
 H        -0.883794        -1.229330         3.911820
 H        -0.127372         0.565749         2.523286
 H         0.177126        -0.750520         1.363059
