19
Iteration:     5
 O        -0.830359         0.750138        -0.057876
 C        -1.745253         0.320322         0.980654
 C        -3.142672         0.832145         0.735745
 C        -2.813135        -0.640473         0.560352
 C        -3.253089        -1.726945         1.480860
 C        -2.169668        -2.087999         2.493284
 O        -0.843982        -2.226271         2.023951
 C        -1.191930        -1.160538         2.947887
 C        -1.118180         0.231929         2.336457
 H        -0.126136         0.051223        -0.088251
 H        -3.704240         1.132095         1.677362
 H        -3.394375         1.624698        -0.005262
 H        -2.751792        -0.902395        -0.462691
 H        -4.064476        -1.418498         2.173917
 H        -3.624681        -2.577462         0.918900
 H        -2.402986        -2.812200         3.292552
 H        -0.909539        -1.173102         4.023944
 H        -1.572694         0.945940         3.096392
 H        -0.039117         0.621879         2.302390
