19
Iteration:   643
 O        -0.864070         0.803613        -0.078978
 C        -1.707561         0.314046         0.938899
 C        -3.036631         1.034952         0.913234
 C        -2.865621        -0.508572         0.506019
 C        -3.307630        -1.721348         1.526508
 C        -2.234799        -2.217072         2.435149
 O        -0.811435        -2.437101         2.157207
 C        -1.158177        -1.189447         2.898818
 C        -0.993154         0.151045         2.227741
 H        -1.384410         1.525081        -0.485866
 H        -3.583984         1.092105         1.860678
 H        -3.396875         1.698976         0.077815
 H        -3.229722        -0.756271        -0.474475
 H        -4.188820        -1.467368         2.179723
 H        -3.604399        -2.479309         0.737439
 H        -2.564370        -2.872503         3.251713
 H        -0.747105        -1.230975         3.972474
 H        -1.553248         0.930714         2.923544
 H         0.128070         0.415520         2.164927
