19
Iteration:  3754charge 0 multiplicity 1
 O        -1.017186         1.154833        -0.171559
 C        -1.668012         0.445428         0.862489
 C        -3.039987         0.896308         1.329455
 C        -2.881227        -0.376601         0.516166
 C        -3.134341        -1.675851         1.209505
 C        -2.421540        -1.968239         2.581741
 O        -1.098906        -2.717710         2.442990
 C        -1.092599        -1.339905         2.830015
 C        -0.679316        -0.153983         1.884102
 H        -1.303386         2.057291        -0.118422
 H        -3.093748         0.723432         2.400736
 H        -3.307009         1.905662         1.175658
 H        -3.321016        -0.400366        -0.561246
 H        -4.224573        -2.004975         1.294842
 H        -2.767287        -2.375880         0.498643
 H        -2.972728        -2.369831         3.423005
 H        -0.677538        -1.434548         3.819790
 H        -0.321558         0.640259         2.563390
 H         0.251362        -0.571607         1.420006
