19
Iteration:  2459charge 0 multiplicity 1
 O        -0.883769         0.861056        -0.089207
 C        -1.646814         0.368586         0.953019
 C        -2.990802         0.886437         1.328416
 C        -2.893466        -0.456992         0.687296
 C        -3.374257        -1.678723         1.358124
 C        -2.374795        -2.043333         2.419470
 O        -1.006794        -2.399924         1.984745
 C        -1.166128        -1.233012         2.845773
 C        -0.704544        -0.038625         2.132214
 H        -1.046226         0.540370        -1.037361
 H        -3.108680         1.090638         2.372801
 H        -3.538212         1.798528         0.932430
 H        -3.080679        -0.470333        -0.447422
 H        -4.262634        -1.455214         1.962542
 H        -3.517569        -2.470646         0.645171
 H        -2.638190        -2.781143         3.258297
 H        -0.998818        -1.104980         3.950031
 H        -0.604842         0.977124         2.695807
 H         0.264262        -0.064111         1.463588
