19
Iteration:  2638
 O        -1.041040         1.101985        -0.198912
 C        -1.647796         0.478489         0.955499
 C        -2.943815         1.159690         1.394619
 C        -2.993815        -0.359829         0.613728
 C        -3.194491        -1.745236         1.177517
 C        -2.413362        -2.063036         2.459322
 O        -0.997852        -2.666913         2.415677
 C        -1.180684        -1.347592         2.874113
 C        -0.662711        -0.190604         1.928711
 H        -0.990708         0.462490        -0.903802
 H        -3.247958         0.961338         2.358399
 H        -3.333321         2.053394         0.875168
 H        -3.376604        -0.244892        -0.374055
 H        -4.142133        -2.221898         1.168515
 H        -2.689208        -2.355953         0.442353
 H        -2.811377        -2.627084         3.374100
 H        -0.930311        -1.215583         3.878556
 H        -0.195129         0.699779         2.459502
 H         0.179644        -0.557503         1.240921
