19
Iteration:  3523
 O        -0.954396         1.063033        -0.166294
 C        -1.668438         0.466616         0.879193
 C        -3.039898         0.901429         1.294407
 C        -2.926282        -0.362232         0.531061
 C        -3.287832        -1.719302         1.299849
 C        -2.351901        -2.091228         2.491460
 O        -1.061199        -2.639014         2.307543
 C        -1.119352        -1.338957         2.916170
 C        -0.609958        -0.062597         1.965404
 H        -1.078413         2.010014        -0.150637
 H        -3.208055         0.789634         2.403576
 H        -3.266272         1.853869         0.845608
 H        -3.244527        -0.400987        -0.516626
 H        -4.418792        -1.696786         1.647078
 H        -3.291324        -2.387073         0.451864
 H        -2.939181        -2.507135         3.338548
 H        -0.760939        -1.242544         4.013181
 H        -0.361578         0.776723         2.647520
 H         0.268789        -0.419951         1.347655
