19
Iteration:  3779
 O        -0.927477         1.036289        -0.177432
 C        -1.673989         0.435575         0.880885
 C        -3.012334         0.979411         1.418599
 C        -2.987684        -0.353818         0.650234
 C        -3.056831        -1.802044         1.161160
 C        -2.367812        -2.029060         2.517650
 O        -1.114390        -2.666070         2.348817
 C        -1.169383        -1.242982         2.838356
 C        -0.660848        -0.106279         1.882963
 H        -1.114960         1.973791        -0.196350
 H        -3.441764         1.092215         2.459824
 H        -3.571524         1.774362         0.753606
 H        -3.546899        -0.262009        -0.266171
 H        -4.144115        -2.023414         1.450345
 H        -2.860543        -2.524481         0.366361
 H        -2.975699        -2.389899         3.387842
 H        -0.938593        -1.340016         3.941935
 H        -0.447059         0.714171         2.518436
 H         0.266799        -0.422541         1.463606
