19
Iteration:  4973charge 0 multiplicity 1
 O        -1.133412         1.011094        -0.213400
 C        -1.599267         0.355269         0.921051
 C        -2.901469         0.895473         1.401836
 C        -2.844688        -0.447026         0.499907
 C        -3.332171        -1.672982         1.335276
 C        -2.339308        -2.090856         2.439465
 O        -0.995454        -2.531716         2.200513
 C        -1.188654        -1.228938         2.861171
 C        -0.672168        -0.060065         2.048991
 H        -0.627206         1.827283         0.044973
 H        -3.209561         0.701792         2.477494
 H        -3.384649         1.748163         1.039110
 H        -3.132184        -0.258453        -0.585569
 H        -4.294416        -1.398046         1.698894
 H        -3.418615        -2.585608         0.704290
 H        -2.908223        -2.829158         3.091579
 H        -1.003781        -1.357389         3.926703
 H        -0.395026         0.790907         2.714352
 H         0.370690        -0.231819         1.811665
