19
Iteration:   859
 O        -0.918842         0.761079        -0.189871
 C        -1.751589         0.429403         0.913122
 C        -3.100768         0.995002         1.060589
 C        -2.916608        -0.432291         0.560032
 C        -3.239054        -1.638563         1.380859
 C        -2.171438        -2.161912         2.475201
 O        -0.872450        -2.454789         2.147482
 C        -1.175068        -1.246607         3.018163
 C        -0.887182        -0.014777         2.230025
 H        -0.731862         1.706436        -0.218411
 H        -3.688134         1.149893         2.025198
 H        -3.451719         1.670098         0.238823
 H        -3.278062        -0.384762        -0.476604
 H        -4.295941        -1.405828         1.774472
 H        -3.380455        -2.425706         0.646830
 H        -2.786089        -2.739519         3.162799
 H        -0.785835        -1.256122         4.077493
 H        -0.726562         0.868062         2.788799
 H         0.100504        -0.164877         1.819798
