19
Iteration:  2096charge 0 multiplicity 1
 O        -0.827581         0.893269        -0.119713
 C        -1.632256         0.423978         0.965919
 C        -2.962526         0.977473         1.195471
 C        -2.923372        -0.454009         0.695226
 C        -3.328201        -1.670972         1.494424
 C        -2.325889        -2.106792         2.536666
 O        -1.107443        -2.588929         1.980292
 C        -1.063912        -1.313900         2.707582
 C        -0.785196         0.076450         2.173600
 H        -1.343729         1.357491        -0.846934
 H        -3.351611         1.149317         2.237184
 H        -3.521342         1.727180         0.548649
 H        -3.216107        -0.265192        -0.394193
 H        -4.294119        -1.319248         1.981639
 H        -3.559401        -2.411583         0.725732
 H        -2.853387        -2.591624         3.426583
 H        -0.667529        -1.493154         3.726870
 H        -0.666604         0.834230         2.938790
 H         0.105394         0.037710         1.475324
