19
Iteration:  1883charge 0 multiplicity 1
 O        -1.136031         1.209443        -0.210825
 C        -1.600379         0.371673         0.855848
 C        -2.979782         0.893688         1.351632
 C        -2.785881        -0.440658         0.499546
 C        -3.196386        -1.741250         1.286850
 C        -2.459314        -1.940473         2.601543
 O        -1.180483        -2.661202         2.343516
 C        -1.138701        -1.308166         2.822800
 C        -0.547581        -0.146024         1.918040
 H        -0.402476         1.771505         0.200021
 H        -3.118273         0.551231         2.406379
 H        -3.400139         1.833955         1.038896
 H        -3.012691        -0.445160        -0.618669
 H        -4.191832        -1.386523         1.626205
 H        -3.127133        -2.679435         0.698787
 H        -2.957765        -2.479058         3.424013
 H        -0.738745        -1.025204         3.827701
 H        -0.297487         0.618611         2.655455
 H         0.200006        -0.705488         1.396770
