19
Iteration:  4737charge 0 multiplicity 1
 O        -0.866644         0.926857        -0.091253
 C        -1.683781         0.325208         0.876645
 C        -3.060635         0.862839         1.258997
 C        -2.954824        -0.393875         0.559653
 C        -3.342898        -1.720584         1.409257
 C        -2.302521        -2.064162         2.534003
 O        -1.021631        -2.455899         2.071301
 C        -1.049675        -1.273883         2.815259
 C        -0.770375        -0.013092         2.071720
 H        -0.667416         1.805986         0.186365
 H        -3.349720         0.796129         2.303640
 H        -3.682360         1.697358         0.704116
 H        -3.222514        -0.258407        -0.543159
 H        -4.247120        -1.462327         1.939969
 H        -3.402108        -2.377095         0.546128
 H        -2.688384        -2.689637         3.348694
 H        -0.691626        -1.298999         3.915053
 H        -0.715198         0.804566         2.848543
 H         0.264209        -0.137529         1.573743
