19
Iteration:  4176charge 0 multiplicity 1
 O        -1.071221         0.950951        -0.207149
 C        -1.597138         0.369861         0.992908
 C        -3.009998         0.955083         1.223154
 C        -2.858584        -0.430445         0.624385
 C        -3.214536        -1.718284         1.336298
 C        -2.357715        -1.949286         2.511838
 O        -1.151618        -2.585256         2.075497
 C        -1.049316        -1.321101         2.824813
 C        -0.720543        -0.003386         2.148393
 H        -0.494403         1.715392        -0.151040
 H        -3.374569         1.034453         2.239138
 H        -3.497162         1.668661         0.601640
 H        -3.055924        -0.370465        -0.428350
 H        -4.272860        -1.767899         1.748013
 H        -2.942129        -2.613383         0.897583
 H        -2.713802        -2.696958         3.148271
 H        -0.648117        -1.323719         3.877624
 H        -0.696527         0.730913         3.081892
 H         0.351311         0.029126         1.957751
