19
Iteration:  4954charge 0 multiplicity 1
 O        -1.083528         1.008994        -0.251829
 C        -1.652069         0.364788         1.020967
 C        -3.073337         0.930144         1.243858
 C        -2.874344        -0.382382         0.659389
 C        -3.303222        -1.697179         1.265866
 C        -2.346362        -2.065715         2.484388
 O        -0.996769        -2.536335         2.178467
 C        -1.117336        -1.323177         2.859903
 C        -0.626745        -0.076153         2.100454
 H        -0.444338         1.755613        -0.041510
 H        -3.399848         0.993290         2.354465
 H        -3.319387         1.794878         0.650757
 H        -3.009439        -0.358256        -0.391709
 H        -4.206760        -1.618158         1.965406
 H        -3.346597        -2.319508         0.369344
 H        -2.827856        -2.622481         3.250406
 H        -0.750459        -1.570964         3.879381
 H        -0.374563         0.723863         2.807521
 H         0.283893        -0.257410         1.524501
