19
Iteration:  2518charge 0 multiplicity 1
 O        -0.951357         1.031990        -0.145353
 C        -1.714437         0.400290         0.879414
 C        -3.028469         1.063220         1.294003
 C        -2.954257        -0.339391         0.716472
 C        -3.181785        -1.733296         1.268276
 C        -2.362843        -2.030371         2.514219
 O        -1.016788        -2.726687         2.216327
 C        -1.104659        -1.292015         2.794748
 C        -0.743720        -0.041239         2.042691
 H        -0.891392         0.341315        -0.867376
 H        -3.139374         1.258472         2.385849
 H        -3.158129         1.725373         0.501104
 H        -3.363130        -0.194741        -0.282509
 H        -4.222959        -1.659375         1.633682
 H        -3.233098        -2.526556         0.461787
 H        -2.925388        -2.473928         3.466878
 H        -0.698636        -1.266776         3.782746
 H        -0.706052         0.804537         2.767874
 H         0.315530        -0.130189         1.716952
