19
Iteration:    91
 O        -0.751862         0.884727        -0.006465
 C        -1.738040         0.366926         0.936884
 C        -3.233688         0.834539         0.907794
 C        -2.727432        -0.630252         0.509168
 C        -3.207434        -1.833686         1.410641
 C        -2.337383        -1.991566         2.613005
 O        -0.982083        -2.352217         2.124543
 C        -1.059756        -1.141017         2.860916
 C        -1.012857         0.188741         2.211480
 H        -0.989454         0.628462        -0.892571
 H        -3.607367         0.890639         1.976102
 H        -3.680466         1.420876         0.029234
 H        -2.694262        -0.826009        -0.491606
 H        -4.266129        -1.731468         1.633828
 H        -3.111044        -2.774187         0.900428
 H        -2.676072        -2.617440         3.446711
 H        -0.563925        -1.306215         3.841391
 H        -1.530494         0.879726         2.906334
 H         0.077072         0.489788         2.183637
