19
Iteration:   586
 O        -0.934345         0.841346        -0.116419
 C        -1.707175         0.396017         1.031294
 C        -3.160463         0.774975         0.974714
 C        -2.752595        -0.580187         0.563744
 C        -3.205743        -1.808677         1.375334
 C        -2.334517        -2.006963         2.558184
 O        -0.980475        -2.363637         2.071358
 C        -1.180610        -1.160020         2.864689
 C        -0.859018         0.148093         2.217734
 H        -0.164205         1.250591         0.298315
 H        -3.461107         1.021408         1.990811
 H        -3.528405         1.571728         0.307256
 H        -2.765457        -0.695136        -0.500615
 H        -4.167222        -1.598724         1.890220
 H        -3.406918        -2.746739         0.833441
 H        -2.738438        -2.584841         3.341848
 H        -0.713044        -1.064180         3.893382
 H        -0.692410         1.142193         2.847520
 H         0.078292        -0.009444         1.602623
