19
Iteration:  4856
 O        -1.015400         0.931732        -0.211301
 C        -1.646028         0.381785         0.991090
 C        -3.076956         0.904105         1.219060
 C        -2.812001        -0.414684         0.658720
 C        -3.309144        -1.664724         1.411983
 C        -2.357042        -2.086990         2.436657
 O        -1.018521        -2.448848         2.027362
 C        -1.160541        -1.319296         2.874961
 C        -0.696234        -0.028616         2.150013
 H        -0.691848         1.864493        -0.021174
 H        -3.313845         1.029391         2.338237
 H        -3.370325         1.704789         0.525373
 H        -2.941770        -0.626217        -0.425580
 H        -4.141337        -1.336582         2.061553
 H        -3.395385        -2.630237         0.921019
 H        -2.676690        -2.875160         3.067084
 H        -0.802276        -1.375618         3.940636
 H        -0.239040         0.700913         2.863322
 H         0.209979        -0.350479         1.570445
