19
Iteration:  3425charge 0 multiplicity 1
 O        -0.928746         1.012636        -0.129674
 C        -1.699021         0.410957         0.874704
 C        -2.999747         1.031295         1.105605
 C        -2.927144        -0.432134         0.606126
 C        -3.316479        -1.674003         1.468101
 C        -2.258207        -2.166929         2.545321
 O        -1.031377        -2.606425         2.056246
 C        -1.143605        -1.337153         2.827471
 C        -0.769304        -0.029759         2.135762
 H        -0.301211         1.681087         0.194124
 H        -3.240156         1.122984         2.183918
 H        -3.257923         1.797212         0.380063
 H        -3.219806        -0.407627        -0.397550
 H        -4.263270        -1.515201         1.939618
 H        -3.605536        -2.507638         0.880878
 H        -2.722505        -2.512254         3.446494
 H        -0.725947        -1.385353         3.870379
 H        -0.828561         0.746016         2.957775
 H         0.293009        -0.062612         1.768722
