19
Iteration:  1441
 O        -0.866961         0.817437        -0.141084
 C        -1.689903         0.478450         0.972181
 C        -3.099226         0.912699         1.094260
 C        -2.826209        -0.590708         0.530283
 C        -3.257346        -1.662969         1.471214
 C        -2.329988        -2.011041         2.545814
 O        -1.040428        -2.471583         1.951048
 C        -1.086428        -1.280277         2.879129
 C        -0.864644         0.136935         2.252918
 H        -0.098511         1.387695         0.024242
 H        -3.477775         0.652486         2.039805
 H        -3.457628         1.725445         0.376371
 H        -2.977722        -0.762022        -0.521738
 H        -4.318400        -1.461297         1.828245
 H        -3.478666        -2.517162         0.812015
 H        -2.661157        -2.830497         3.302795
 H        -0.789501        -1.583616         3.858514
 H        -1.139360         0.811028         3.046147
 H         0.169210         0.338034         2.131813
