19
Iteration:  1668charge 0 multiplicity 1
 O        -0.998905         1.004671        -0.252847
 C        -1.633897         0.371704         0.928132
 C        -3.037839         0.872205         1.413876
 C        -2.864436        -0.342641         0.530793
 C        -3.082093        -1.725790         1.148787
 C        -2.428238        -2.024288         2.492308
 O        -1.126517        -2.577862         2.438145
 C        -1.144596        -1.242611         2.833111
 C        -0.615201        -0.056023         1.999431
 H        -1.741373         1.496049        -0.712270
 H        -3.109424         0.826115         2.569238
 H        -3.411750         1.802221         1.076676
 H        -3.272988        -0.377108        -0.484918
 H        -4.155143        -1.922648         1.352431
 H        -2.742179        -2.465713         0.398490
 H        -3.098931        -2.439697         3.164534
 H        -1.147029        -1.041724         3.904298
 H        -0.545418         0.728282         2.754177
 H         0.315483        -0.575293         1.676540
