19
Iteration:  2617
 O        -1.018594         1.157467        -0.135109
 C        -1.644509         0.424546         0.887998
 C        -2.989560         0.949467         1.375105
 C        -2.915026        -0.325008         0.607615
 C        -3.061125        -1.707710         1.257752
 C        -2.376576        -2.059385         2.553855
 O        -1.143457        -2.698209         2.319382
 C        -1.171220        -1.242739         2.827152
 C        -0.715513        -0.180444         1.910977
 H        -0.887582         0.710181        -1.026386
 H        -3.022320         0.965599         2.417421
 H        -3.321369         1.778235         0.711584
 H        -3.303209        -0.344896        -0.388506
 H        -4.114004        -1.771021         1.461730
 H        -2.981545        -2.539894         0.539869
 H        -2.927948        -2.518557         3.501843
 H        -0.733460        -1.160265         3.777928
 H        -0.448125         0.699159         2.570700
 H         0.213364        -0.376650         1.267331
