19
Iteration:  1193
 O        -0.973971         0.966175        -0.184564
 C        -1.698769         0.330350         0.855829
 C        -3.010229         0.870604         1.362406
 C        -2.943315        -0.428068         0.410793
 C        -3.148688        -1.788988         1.156590
 C        -2.310746        -1.999020         2.513160
 O        -0.948124        -2.447226         2.426222
 C        -1.262115        -1.134995         2.933484
 C        -0.764621        -0.111867         1.990063
 H        -0.732193         1.888961         0.096871
 H        -3.292555         0.846260         2.475978
 H        -3.409251         1.750320         0.878304
 H        -3.558334        -0.371726        -0.477111
 H        -4.167829        -1.922691         1.556932
 H        -2.749347        -2.698110         0.584506
 H        -2.903047        -2.681636         3.140454
 H        -0.983660        -1.067199         4.090054
 H        -0.462961         0.846310         2.482198
 H         0.081270        -0.657706         1.455343
