19
Iteration:  1875
 O        -1.192428         1.219146        -0.214542
 C        -1.518089         0.402070         0.853694
 C        -2.998753         0.846544         1.366892
 C        -2.761769        -0.395403         0.491634
 C        -3.149153        -1.724587         1.260154
 C        -2.426241        -1.991170         2.614057
 O        -1.193425        -2.672792         2.345307
 C        -1.164522        -1.264216         2.893529
 C        -0.628408        -0.190864         1.913317
 H        -0.303038         1.624013        -0.184019
 H        -3.107340         0.966881         2.449358
 H        -3.219312         1.939143         0.976630
 H        -3.126806        -0.368106        -0.590088
 H        -4.245658        -1.608084         1.410283
 H        -3.129767        -2.634719         0.723096
 H        -2.978855        -2.304553         3.478452
 H        -0.645338        -1.387135         3.865170
 H        -0.167776         0.567765         2.516206
 H         0.250070        -0.634395         1.361616
