19
Iteration:  3915charge 0 multiplicity 1
 O        -0.957177         0.933456        -0.138841
 C        -1.624651         0.396576         0.958198
 C        -2.989731         0.926965         1.224700
 C        -2.825982        -0.461795         0.641934
 C        -3.421255        -1.600453         1.403709
 C        -2.334090        -2.104521         2.371571
 O        -0.916702        -2.561991         2.145941
 C        -1.213672        -1.257643         2.816355
 C        -0.707560        -0.019800         2.095809
 H        -1.326166         1.832307        -0.250856
 H        -3.366731         0.831211         2.206783
 H        -3.378488         1.779343         0.639860
 H        -3.104011        -0.630613        -0.465649
 H        -4.150857        -1.250932         2.141378
 H        -3.933284        -2.390384         0.698350
 H        -2.808568        -2.743517         3.106202
 H        -0.811996        -1.362324         3.807483
 H        -0.642042         0.760180         2.854740
 H         0.322169        -0.235313         1.813360
