19
Iteration:  3946
 O        -0.890962         0.867210        -0.181609
 C        -1.645298         0.390455         0.878156
 C        -2.970935         1.006288         1.246535
 C        -2.888152        -0.433068         0.712076
 C        -3.222346        -1.707595         1.373889
 C        -2.398880        -2.058986         2.536637
 O        -1.034832        -2.432070         2.018868
 C        -1.153755        -1.342724         2.841057
 C        -0.809435        -0.028789         2.152633
 H        -1.130520         1.789385        -0.328994
 H        -3.300904         0.971853         2.281950
 H        -3.490432         1.868124         0.782344
 H        -3.317773        -0.509621        -0.360117
 H        -4.246632        -1.695346         1.775539
 H        -3.312483        -2.493633         0.627251
 H        -2.682662        -2.817706         3.215743
 H        -0.483050        -1.503100         3.720044
 H        -0.970239         0.739032         2.848473
 H         0.223510        -0.129278         1.960091
