19
Iteration:  2943
 O        -0.941712         1.017752        -0.101644
 C        -1.641279         0.334789         0.936359
 C        -3.007482         0.932574         1.242513
 C        -2.916059        -0.389948         0.597734
 C        -3.325197        -1.668587         1.458575
 C        -2.339907        -2.038515         2.525404
 O        -1.109323        -2.478334         1.961452
 C        -1.100328        -1.353002         2.851406
 C        -0.674887        -0.017630         2.122199
 H        -0.471533         0.314733        -0.586611
 H        -3.376013         0.924469         2.258837
 H        -3.240896         1.788351         0.568052
 H        -3.182928        -0.676109        -0.441343
 H        -4.218830        -1.522424         1.959559
 H        -3.449370        -2.535956         0.752559
 H        -2.777437        -2.834670         3.288837
 H        -0.635305        -1.268150         3.807490
 H        -0.712750         0.826988         2.851953
 H         0.344934        -0.144143         1.786019
