19
Iteration:  1057charge 0 multiplicity 1
 O        -1.219820         1.254734        -0.250642
 C        -1.637870         0.413100         0.821249
 C        -2.999818         0.865986         1.388938
 C        -2.789094        -0.455777         0.433236
 C        -2.937357        -1.823183         1.083048
 C        -2.396338        -1.920520         2.525085
 O        -1.113836        -2.617045         2.743208
 C        -1.226386        -1.200289         2.978438
 C        -0.686431        -0.264716         1.755236
 H        -0.945605         2.092264         0.196640
 H        -3.234669         0.622107         2.453710
 H        -3.394452         1.749956         0.968975
 H        -3.278758        -0.379600        -0.520629
 H        -3.995445        -2.206832         0.977201
 H        -2.284944        -2.486561         0.471915
 H        -3.053839        -2.241986         3.323301
 H        -1.062440        -0.987433         3.996848
 H         0.184873         0.412843         2.052226
 H        -0.122995        -1.056147         1.205839
