19
Iteration:  1108
 O        -1.033226         1.168085        -0.123645
 C        -1.697064         0.357751         0.881015
 C        -3.088426         0.728517         1.369099
 C        -2.938834        -0.491711         0.430368
 C        -2.982519        -1.846961         1.074654
 C        -2.366285        -1.869752         2.514054
 O        -1.125247        -2.475097         2.642731
 C        -1.167932        -1.097529         2.870347
 C        -0.655805        -0.264521         1.738857
 H        -0.691308         1.884833         0.401763
 H        -3.074850         0.310809         2.443398
 H        -3.659783         1.638956         1.204737
 H        -3.180856        -0.301459        -0.595583
 H        -4.072651        -1.897276         1.146900
 H        -2.698755        -2.750903         0.567097
 H        -2.934732        -1.999692         3.434029
 H        -1.019198        -0.822049         3.912297
 H        -0.117766         0.550128         2.206493
 H         0.144960        -0.795119         1.256995
