19
Iteration:  3521
 O        -0.940756         1.059792        -0.169034
 C        -1.650727         0.459664         0.882594
 C        -3.015964         0.888692         1.306185
 C        -2.961499        -0.371296         0.540316
 C        -3.271671        -1.718224         1.309829
 C        -2.358841        -2.096682         2.470208
 O        -1.065473        -2.626151         2.294946
 C        -1.125099        -1.334675         2.937432
 C        -0.645958        -0.048193         1.955781
 H        -1.090140         2.033850        -0.191073
 H        -3.177850         0.826544         2.451627
 H        -3.205132         1.873877         0.874132
 H        -3.168386        -0.400324        -0.465376
 H        -4.399460        -1.721576         1.596441
 H        -3.327817        -2.463624         0.446844
 H        -2.894241        -2.509722         3.351061
 H        -0.766940        -1.294085         4.020891
 H        -0.388577         0.834571         2.511087
 H         0.280552        -0.384381         1.380025
