19
Iteration:   580charge 0 multiplicity 1
 O        -0.974023         0.865094        -0.066169
 C        -1.707747         0.363151         0.945696
 C        -3.110654         0.828369         0.988467
 C        -2.767313        -0.645319         0.574946
 C        -3.269723        -1.795262         1.350190
 C        -2.322279        -1.987966         2.516288
 O        -0.902937        -2.309881         2.113926
 C        -1.197530        -1.161699         2.865047
 C        -0.853150         0.110620         2.227697
 H        -0.114748         1.216701         0.144176
 H        -3.461038         0.960802         2.019713
 H        -3.528541         1.521263         0.218570
 H        -2.945531        -0.672240        -0.521911
 H        -4.221896        -1.548394         1.876501
 H        -3.376582        -2.801046         0.863285
 H        -2.866899        -2.486319         3.407596
 H        -0.852411        -1.269769         3.903967
 H        -0.525236         0.892974         2.840026
 H         0.069942        -0.145532         1.678043
