19
Iteration:  1964
 O        -1.030713         0.971500        -0.238573
 C        -1.705638         0.483967         0.896548
 C        -2.919917         1.047703         1.393875
 C        -2.877576        -0.343543         0.685220
 C        -3.251158        -1.721246         1.261692
 C        -2.368843        -2.103630         2.380642
 O        -1.065123        -2.632290         2.274087
 C        -1.151458        -1.327535         2.849290
 C        -0.644044        -0.013198         2.058155
 H        -0.750322         0.213803        -0.812124
 H        -3.112147         0.985664         2.512043
 H        -3.454149         1.748345         0.746150
 H        -3.180341        -0.266991        -0.308634
 H        -4.312662        -1.849687         1.586440
 H        -3.182755        -2.430337         0.472181
 H        -2.924510        -2.411998         3.248926
 H        -0.991298        -1.198485         3.920903
 H        -0.552890         0.731759         2.790345
 H         0.421298        -0.126372         1.787744
