19
Iteration:  4559
 O        -0.931293         1.088099        -0.093930
 C        -1.681495         0.403204         0.919963
 C        -2.990876         0.963189         1.312022
 C        -2.922140        -0.426860         0.539013
 C        -3.216709        -1.742837         1.300281
 C        -2.368536        -2.065452         2.586250
 O        -1.017816        -2.583512         2.288107
 C        -1.191222        -1.233362         2.773565
 C        -0.774358        -0.131700         1.870068
 H        -0.453051         1.840942         0.242029
 H        -3.268342         0.701197         2.314333
 H        -3.595555         1.773128         0.822203
 H        -3.201951        -0.503853        -0.512393
 H        -4.275805        -1.666094         1.460413
 H        -3.098781        -2.579943         0.614297
 H        -2.789435        -2.625095         3.412312
 H        -0.706847        -1.094551         3.812152
 H        -0.349057         0.655331         2.505894
 H         0.071381        -0.675915         1.426567
