19
Iteration:  2339
 O        -0.869644         0.713250        -0.119398
 C        -1.669794         0.318928         0.919543
 C        -2.916301         1.097566         1.194612
 C        -2.944271        -0.470831         0.722043
 C        -3.421590        -1.672705         1.497339
 C        -2.254977        -2.101235         2.360393
 O        -1.061727        -2.398941         1.864988
 C        -1.143661        -1.308593         2.846385
 C        -0.722895         0.116749         2.291722
 H        -1.421433         1.378932        -0.503413
 H        -3.225226         1.223706         2.211203
 H        -3.473863         1.848890         0.666047
 H        -3.059157        -0.531255        -0.339887
 H        -4.376344        -1.364676         1.994111
 H        -3.617779        -2.569784         0.903034
 H        -2.571379        -2.893360         3.121701
 H        -0.704150        -1.529789         3.800729
 H        -0.674766         0.761945         3.147341
 H         0.318960        -0.025554         1.891549
