19
Iteration:  3848
 O        -1.027697         1.033578        -0.159765
 C        -1.621655         0.418794         0.937750
 C        -2.987161         0.939960         1.334166
 C        -2.808335        -0.456492         0.564524
 C        -3.257688        -1.732580         1.303817
 C        -2.445058        -2.000660         2.524531
 O        -1.015190        -2.616025         2.230964
 C        -1.142387        -1.277924         2.746464
 C        -0.746189        -0.057839         2.002372
 H        -0.202979         1.525600         0.034470
 H        -3.450192         0.703875         2.346365
 H        -3.297535         1.865955         0.923538
 H        -3.222540        -0.433972        -0.459746
 H        -4.322573        -1.593156         1.546473
 H        -3.280569        -2.723101         0.663415
 H        -2.894264        -2.339788         3.438703
 H        -0.639224        -1.202674         3.722921
 H        -0.793959         0.719486         2.790247
 H         0.294104        -0.114857         1.703368
