19
Iteration:   897charge 0 multiplicity 1
 O        -0.947177         0.951624        -0.173126
 C        -1.597995         0.364015         0.909846
 C        -2.994205         0.832172         1.211984
 C        -2.809867        -0.547470         0.561483
 C        -3.288172        -1.738446         1.329071
 C        -2.313375        -2.075542         2.517217
 O        -0.986902        -2.486681         2.204173
 C        -1.271052        -1.107619         2.871474
 C        -0.772729         0.062564         2.091126
 H        -1.340437         1.796916        -0.406720
 H        -3.421067         0.922368         2.207030
 H        -3.385442         1.515119         0.517188
 H        -3.230085        -0.616102        -0.434137
 H        -4.240831        -1.615772         1.795203
 H        -3.440588        -2.611251         0.643207
 H        -2.648206        -2.670783         3.388722
 H        -0.835078        -1.185495         3.968346
 H        -0.809708         0.897269         2.862311
 H         0.278335        -0.257785         1.869617
