19
Iteration:  4713
 O        -0.994525         1.024523        -0.217438
 C        -1.707014         0.409182         0.921047
 C        -3.048806         0.980170         1.231853
 C        -2.819180        -0.479041         0.624239
 C        -3.176094        -1.724581         1.416100
 C        -2.356197        -2.034229         2.565088
 O        -1.080998        -2.688433         2.109333
 C        -1.082286        -1.331221         2.744889
 C        -0.801133         0.059845         2.134084
 H        -0.450165         1.786170         0.096389
 H        -3.374092         1.113881         2.282660
 H        -3.299424         1.851495         0.606337
 H        -3.020171        -0.595159        -0.467425
 H        -4.123344        -1.552042         1.816578
 H        -3.209053        -2.394896         0.574366
 H        -2.832134        -2.425652         3.403126
 H        -0.527598        -1.471496         3.710304
 H        -0.954222         0.695440         3.074080
 H         0.286834         0.134264         1.794146
