19
Iteration:  3687
 O        -1.050190         1.151912        -0.131851
 C        -1.656939         0.377219         0.784647
 C        -3.031831         0.803062         1.470860
 C        -2.896630        -0.396348         0.603368
 C        -3.075624        -1.729590         1.178951
 C        -2.395789        -1.920165         2.444142
 O        -1.104522        -2.642828         2.435000
 C        -1.157782        -1.167110         2.845883
 C        -0.678628        -0.232565         1.847126
 H        -0.296776         1.621544         0.324097
 H        -3.120052         0.595401         2.496414
 H        -3.307240         1.787230         1.150369
 H        -3.359991        -0.411883        -0.416770
 H        -4.168543        -1.723137         1.217286
 H        -2.936192        -2.520628         0.468589
 H        -3.133032        -2.189160         3.194821
 H        -0.911960        -1.077267         3.906991
 H        -0.324485         0.669263         2.312788
 H         0.150233        -0.620111         1.217058
