19
Iteration:  2166
 O        -0.889888         0.794817        -0.208682
 C        -1.587734         0.428853         1.002923
 C        -2.976094         1.114169         1.226781
 C        -2.903286        -0.398914         0.737793
 C        -3.304323        -1.585333         1.491764
 C        -2.343954        -2.153323         2.427570
 O        -0.984063        -2.515230         1.956364
 C        -1.091484        -1.405862         2.727061
 C        -0.901183         0.079561         2.267100
 H        -1.311077         0.344817        -1.010148
 H        -3.332154         1.363973         2.227381
 H        -3.460126         1.718570         0.539576
 H        -3.203763        -0.506926        -0.259598
 H        -4.209279        -1.491578         2.090052
 H        -3.564512        -2.266667         0.634045
 H        -2.632298        -2.753740         3.349271
 H        -0.662757        -1.532774         3.718278
 H        -1.035718         0.813625         3.059674
 H         0.107034        -0.022025         1.927309
