19
Iteration:  2754charge 0 multiplicity 1
 O        -1.037552         1.265755        -0.061114
 C        -1.620649         0.456317         0.941991
 C        -3.151360         0.896802         1.189993
 C        -2.898279        -0.360962         0.499072
 C        -3.185761        -1.679235         1.405429
 C        -2.310241        -2.043393         2.532329
 O        -1.132029        -2.713960         2.320223
 C        -1.134390        -1.244945         2.882305
 C        -0.576947        -0.297268         1.868718
 H        -0.359462         0.803966        -0.534523
 H        -3.413717         1.020156         2.222821
 H        -3.421499         1.844126         0.581192
 H        -3.044216        -0.500885        -0.564290
 H        -4.207669        -1.450842         1.832658
 H        -3.267435        -2.469878         0.599384
 H        -2.973684        -2.275175         3.295118
 H        -0.738755        -1.219736         3.941082
 H         0.037593         0.442270         2.376338
 H         0.030977        -0.655079         1.094782
