19
Iteration:  4602
 O        -1.176179         0.946895        -0.227825
 C        -1.652695         0.416932         0.993284
 C        -2.998315         0.980886         1.283271
 C        -2.806404        -0.343566         0.558474
 C        -3.192402        -1.687618         1.253369
 C        -2.412861        -2.005266         2.512606
 O        -1.032932        -2.644086         2.244825
 C        -1.135858        -1.355883         2.812220
 C        -0.636344        -0.038617         2.126147
 H        -0.784093         1.821300        -0.042668
 H        -3.434003         0.808467         2.252565
 H        -3.182812         1.839281         0.609200
 H        -2.699085        -0.347150        -0.514554
 H        -4.215588        -1.731372         1.556046
 H        -3.013664        -2.512829         0.560915
 H        -3.042509        -2.413191         3.318851
 H        -0.646486        -1.378532         3.851990
 H        -0.505963         0.718559         2.958807
 H         0.284436        -0.167903         1.520507
