19
Iteration:    93charge 0 multiplicity 1
 O        -0.752371         0.892759        -0.001189
 C        -1.746106         0.386218         0.929361
 C        -3.230095         0.831154         0.911880
 C        -2.725149        -0.629275         0.493464
 C        -3.206323        -1.826725         1.434701
 C        -2.330321        -1.981189         2.600085
 O        -0.975086        -2.357518         2.121062
 C        -1.074055        -1.130644         2.871800
 C        -1.004475         0.151842         2.216875
 H        -0.957124         0.569631        -0.905248
 H        -3.676375         0.843085         1.934998
 H        -3.734690         1.434503         0.041488
 H        -2.745899        -0.863642        -0.621089
 H        -4.267613        -1.771216         1.656989
 H        -3.104161        -2.806884         0.925681
 H        -2.738874        -2.619382         3.428032
 H        -0.569508        -1.263278         3.860322
 H        -1.485461         0.939937         2.914976
 H         0.133791         0.456370         2.170204
