19
Iteration:   746
 O        -0.842854         0.847400        -0.111611
 C        -1.723571         0.506117         0.959426
 C        -3.155101         0.970618         0.881678
 C        -2.851472        -0.491795         0.594270
 C        -3.332338        -1.685123         1.565975
 C        -2.231565        -2.189176         2.454011
 O        -0.846872        -2.455273         2.103290
 C        -1.076030        -1.290416         2.840630
 C        -1.042400         0.118915         2.216628
 H        -0.015564         0.424610         0.117037
 H        -3.658852         1.233121         1.775360
 H        -3.459808         1.566946        -0.019634
 H        -2.968928        -0.797124        -0.458862
 H        -4.130074        -1.241349         2.237831
 H        -3.856057        -2.497278         1.011871
 H        -2.578207        -2.967655         3.175809
 H        -0.756249        -1.222360         3.825192
 H        -1.193805         0.749855         3.077591
 H         0.016091         0.300512         2.050194
