19
Iteration:  3408charge 0 multiplicity 1
 O        -0.877568         1.028245        -0.180768
 C        -1.624967         0.412059         0.959785
 C        -3.079544         0.924353         1.149977
 C        -2.855366        -0.460211         0.645352
 C        -3.298883        -1.617435         1.523986
 C        -2.305883        -2.139880         2.508004
 O        -1.094961        -2.598805         1.970224
 C        -1.140068        -1.260583         2.871577
 C        -0.795627         0.021372         2.118682
 H        -0.135220         1.429776         0.292029
 H        -3.615069         1.184425         2.076874
 H        -3.384793         1.607921         0.375757
 H        -3.084167        -0.856428        -0.418376
 H        -4.110410        -1.306883         2.269550
 H        -3.463572        -2.645136         0.936876
 H        -2.833001        -3.006227         3.042075
 H        -0.623053        -1.420334         3.778597
 H        -0.782655         0.909662         2.732128
 H         0.200058        -0.231204         1.762095
