19
Iteration:  4785
 O        -1.043279         0.863980        -0.266572
 C        -1.672536         0.411350         1.004212
 C        -3.027758         0.995907         1.248907
 C        -2.823251        -0.425225         0.679926
 C        -3.279284        -1.697978         1.374783
 C        -2.360532        -2.171657         2.433841
 O        -1.000759        -2.509753         2.079151
 C        -1.123862        -1.331271         2.814463
 C        -0.719153         0.093098         2.186989
 H        -0.777421         1.828150        -0.165916
 H        -3.280249         1.118071         2.323935
 H        -3.275470         1.810248         0.671133
 H        -2.884637        -0.397052        -0.374937
 H        -4.269644        -1.386686         1.899373
 H        -3.331536        -2.543126         0.589453
 H        -2.869443        -2.924475         3.174398
 H        -0.689810        -1.313329         3.822043
 H        -0.758711         0.936700         2.858436
 H         0.320481        -0.204090         2.090677
