19
Iteration:   593charge 0 multiplicity 1
 O        -0.896349         0.826163        -0.152574
 C        -1.721604         0.427507         1.029632
 C        -3.202211         0.783722         0.999697
 C        -2.761326        -0.560365         0.551978
 C        -3.187350        -1.780641         1.418421
 C        -2.312288        -2.050349         2.578737
 O        -1.043450        -2.401811         2.064820
 C        -1.143573        -1.140927         2.888829
 C        -0.847074         0.197930         2.174237
 H        -0.188315         1.367669         0.294968
 H        -3.685463         0.888901         2.006235
 H        -3.451759         1.509089         0.286628
 H        -2.561871        -0.761233        -0.533958
 H        -4.210206        -1.582716         1.720205
 H        -3.247769        -2.644575         0.781434
 H        -2.615501        -2.797228         3.360892
 H        -0.728331        -1.238653         3.853288
 H        -0.938461         0.973447         2.873315
 H         0.171016         0.064984         1.874099
