19
Iteration:  3762
 O        -0.922680         1.166914        -0.246566
 C        -1.716897         0.416047         0.872360
 C        -3.077397         0.908609         1.358160
 C        -2.948875        -0.359395         0.568576
 C        -3.178785        -1.685211         1.251084
 C        -2.388773        -1.959300         2.538997
 O        -1.081878        -2.696874         2.441531
 C        -1.073918        -1.361448         2.792715
 C        -0.695308        -0.209578         1.963116
 H        -1.298413         2.031168        -0.130153
 H        -3.026420         0.793846         2.415369
 H        -3.419161         1.850285         1.054657
 H        -3.129322        -0.261897        -0.524091
 H        -4.116802        -2.141646         1.125766
 H        -2.564789        -2.309442         0.513934
 H        -2.988726        -2.373149         3.323570
 H        -0.763542        -1.277017         3.844588
 H        -0.467029         0.711489         2.634702
 H         0.207819        -0.454019         1.304455
