19
Iteration:   645
 O        -0.844138         0.793950        -0.075551
 C        -1.715063         0.320542         0.933997
 C        -3.064772         1.030200         0.895144
 C        -2.858863        -0.496516         0.512052
 C        -3.313965        -1.722815         1.530944
 C        -2.234638        -2.216724         2.444165
 O        -0.800432        -2.421085         2.154411
 C        -1.167922        -1.205677         2.897291
 C        -0.981458         0.160185         2.231580
 H        -1.392760         1.504696        -0.519257
 H        -3.569164         1.066009         1.888126
 H        -3.456690         1.653939         0.133892
 H        -3.281185        -0.685396        -0.491715
 H        -4.203563        -1.436261         2.186732
 H        -3.627192        -2.462121         0.726737
 H        -2.546126        -2.960168         3.263118
 H        -0.805156        -1.274659         3.909944
 H        -1.459273         0.931618         2.916128
 H         0.119716         0.350815         2.198497
