19
Iteration:  4845
 O        -0.962293         0.926120        -0.150846
 C        -1.634396         0.395534         0.974200
 C        -3.092487         0.958271         1.191131
 C        -2.955769        -0.465325         0.640353
 C        -3.295022        -1.704385         1.427868
 C        -2.290613        -2.049260         2.500474
 O        -1.026537        -2.515989         2.036028
 C        -1.088785        -1.270110         2.793638
 C        -0.711058        -0.025127         2.151218
 H        -0.523447         1.712779         0.202333
 H        -3.403809         1.166814         2.268223
 H        -3.429751         1.762685         0.483811
 H        -3.049263        -0.411330        -0.484814
 H        -4.291148        -1.757545         1.863628
 H        -3.561150        -2.351524         0.602493
 H        -2.762845        -2.620984         3.279498
 H        -0.677009        -1.502436         3.799777
 H        -0.479063         0.793625         2.888127
 H         0.220560        -0.342430         1.598541
