19
Iteration:  1420
 O        -0.932738         0.894608        -0.131729
 C        -1.636460         0.305580         0.983153
 C        -3.115367         0.835949         1.032671
 C        -2.744376        -0.513178         0.554537
 C        -3.289736        -1.615254         1.491685
 C        -2.344184        -2.100603         2.554793
 O        -1.030279        -2.384127         1.960858
 C        -1.075163        -1.242141         2.847206
 C        -0.912972         0.069225         2.257808
 H        -0.045964         1.256951         0.136114
 H        -3.461057         0.896179         2.037289
 H        -3.351258         1.611314         0.199566
 H        -2.650632        -0.665214        -0.512631
 H        -4.267347        -1.210858         1.990750
 H        -3.792451        -2.411152         0.890725
 H        -2.763554        -2.855212         3.328818
 H        -0.498418        -1.494943         3.732540
 H        -1.091024         0.824052         3.053737
 H         0.152384         0.097473         2.022439
