19
Iteration:   848charge 0 multiplicity 1
 O        -0.927810         0.747132        -0.153870
 C        -1.722599         0.346720         0.939776
 C        -3.109833         0.980083         1.033403
 C        -2.984500        -0.382570         0.512608
 C        -3.134126        -1.595990         1.448347
 C        -2.280639        -2.090655         2.504568
 O        -0.883890        -2.427644         2.119164
 C        -1.123902        -1.299143         2.935988
 C        -0.933240         0.019861         2.187934
 H        -0.440239         1.575652         0.114927
 H        -3.469926         1.211774         2.094428
 H        -3.358874         1.714954         0.243661
 H        -3.197697        -0.642712        -0.531299
 H        -4.173328        -1.767012         1.891574
 H        -3.046731        -2.446546         0.768707
 H        -2.605757        -2.809038         3.248239
 H        -0.828065        -1.358748         4.024695
 H        -1.099746         0.739377         2.942124
 H         0.081783         0.017909         1.818267
