19
Iteration:  1918
 O        -0.877288         1.042205        -0.052650
 C        -1.720581         0.323003         0.898145
 C        -3.008326         0.942278         1.328697
 C        -2.950497        -0.431393         0.563269
 C        -3.230349        -1.749235         1.278911
 C        -2.389266        -1.940691         2.552002
 O        -1.093668        -2.563463         2.252447
 C        -1.111077        -1.205623         2.808693
 C        -0.615630        -0.169272         1.898655
 H        -1.463982         1.831676        -0.249501
 H        -3.224222         0.820659         2.394609
 H        -3.494977         1.902062         0.844311
 H        -3.277692        -0.313328        -0.516701
 H        -4.292962        -1.685573         1.671147
 H        -3.340655        -2.616457         0.679302
 H        -2.922708        -2.525981         3.257018
 H        -0.871969        -1.190091         3.910300
 H        -0.086903         0.641903         2.306548
 H         0.230163        -0.663865         1.387298
