19
Iteration:  3593
 O        -1.002558         1.147803        -0.125184
 C        -1.649071         0.355379         0.882268
 C        -2.971270         0.782205         1.452462
 C        -2.861743        -0.494927         0.563105
 C        -3.188804        -1.712458         1.232554
 C        -2.382789        -1.931141         2.465225
 O        -1.114315        -2.568444         2.367077
 C        -1.188590        -1.198293         2.769923
 C        -0.677828        -0.169942         1.843267
 H        -0.348730         1.681516         0.347895
 H        -3.045840         0.565272         2.521069
 H        -3.292468         1.731579         1.068251
 H        -3.583755        -0.352171        -0.292253
 H        -4.275611        -1.687215         1.308457
 H        -2.995537        -2.618173         0.615012
 H        -2.900047        -2.344129         3.322912
 H        -1.030610        -0.931257         3.788902
 H        -0.388434         0.780518         2.471458
 H         0.172577        -0.574727         1.289225
