19
Iteration:  1906charge 0 multiplicity 1
 O        -0.956345         1.086057        -0.073655
 C        -1.583708         0.361812         0.905792
 C        -3.041863         0.768175         1.355497
 C        -2.892325        -0.433940         0.561463
 C        -3.318629        -1.705189         1.286388
 C        -2.369402        -1.953279         2.491570
 O        -1.131188        -2.604572         2.307552
 C        -1.129671        -1.208156         2.800508
 C        -0.597798        -0.147907         1.861213
 H        -1.047931         2.044039         0.005414
 H        -3.225389         0.950823         2.413876
 H        -3.223533         1.686921         0.677693
 H        -3.324345        -0.332233        -0.511645
 H        -4.352538        -1.478223         1.673821
 H        -3.181124        -2.561975         0.647959
 H        -2.832762        -2.171951         3.444750
 H        -0.643718        -1.020233         3.804854
 H        -0.359722         0.649986         2.539986
 H         0.195382        -0.566425         1.232112
