19
Iteration:  4295
 O        -1.140793         1.191226        -0.262863
 C        -1.595682         0.454301         0.811144
 C        -2.945498         0.830784         1.422380
 C        -2.850492        -0.391341         0.589694
 C        -3.168647        -1.834238         1.224516
 C        -2.450961        -1.998198         2.510714
 O        -1.172584        -2.708565         2.409585
 C        -1.089953        -1.285110         2.849230
 C        -0.621781        -0.042302         1.917776
 H        -0.360776         1.620357         0.172297
 H        -3.103060         0.626893         2.438407
 H        -3.212679         1.885725         1.103091
 H        -3.125968        -0.307477        -0.424974
 H        -4.275102        -1.842010         1.458084
 H        -2.904436        -2.521185         0.389786
 H        -3.011657        -2.268563         3.428956
 H        -0.888884        -1.173664         3.979974
 H        -0.370651         0.790164         2.593048
 H         0.335504        -0.252333         1.422898
