19
Iteration:  3916
 O        -0.954648         0.932804        -0.143709
 C        -1.627802         0.396548         0.953293
 C        -2.989432         0.920486         1.230444
 C        -2.820307        -0.464004         0.637277
 C        -3.426175        -1.596166         1.409504
 C        -2.326464        -2.107786         2.364248
 O        -0.922108        -2.567816         2.144692
 C        -1.215138        -1.247599         2.820679
 C        -0.711710        -0.017802         2.104694
 H        -1.326505         1.845049        -0.273226
 H        -3.356109         0.872312         2.202732
 H        -3.374180         1.790382         0.660793
 H        -3.103552        -0.601664        -0.463961
 H        -4.191426        -1.282036         2.134511
 H        -3.933131        -2.395951         0.698312
 H        -2.766336        -2.772343         3.113540
 H        -0.798085        -1.347645         3.782660
 H        -0.642060         0.788327         2.875720
 H         0.338152        -0.255466         1.823993
