19
Iteration:  4684charge 0 multiplicity 1
 O        -1.090774         0.977880        -0.228998
 C        -1.703534         0.495572         0.994319
 C        -3.057525         0.978633         1.188336
 C        -2.810524        -0.422671         0.571605
 C        -3.260085        -1.645202         1.366058
 C        -2.406894        -2.049711         2.510648
 O        -0.960732        -2.608165         2.146611
 C        -1.105000        -1.385185         2.919913
 C        -0.659103        -0.079086         2.132217
 H        -0.820443         1.888840        -0.268288
 H        -3.483555         1.028659         2.179060
 H        -3.230175         1.874733         0.486089
 H        -2.905165        -0.500254        -0.543851
 H        -4.356707        -1.667425         1.692754
 H        -3.273802        -2.339379         0.505193
 H        -2.874406        -2.750543         3.229412
 H        -0.569957        -1.420821         3.902764
 H        -0.595555         0.591364         2.969956
 H         0.367638        -0.242584         1.783527
