19
Iteration:  4598
 O        -1.200905         0.942440        -0.224824
 C        -1.631241         0.455822         1.022211
 C        -2.997354         0.986691         1.255186
 C        -2.819382        -0.344636         0.555097
 C        -3.214413        -1.667657         1.222059
 C        -2.393620        -2.005743         2.510909
 O        -1.026914        -2.651941         2.266544
 C        -1.107816        -1.340189         2.823461
 C        -0.631123        -0.091597         2.122233
 H        -0.761207         1.799228        -0.002596
 H        -3.555342         0.838261         2.172541
 H        -3.339431         1.818317         0.613484
 H        -2.682666        -0.331812        -0.542839
 H        -4.257850        -1.773877         1.638648
 H        -2.999344        -2.497819         0.496955
 H        -3.075826        -2.409858         3.319599
 H        -0.612515        -1.390867         3.764840
 H        -0.506871         0.699121         2.895974
 H         0.372425        -0.226367         1.658871
