19
Iteration:  2232
 O        -0.951951         0.939239        -0.169441
 C        -1.606882         0.364844         0.988994
 C        -3.011117         0.945816         1.127834
 C        -2.821173        -0.482809         0.661685
 C        -3.430550        -1.540298         1.653159
 C        -2.355789        -2.139653         2.453919
 O        -1.115511        -2.387036         1.832682
 C        -1.081540        -1.359498         2.786370
 C        -0.691873        -0.027658         2.218812
 H        -0.031483         0.885235         0.026572
 H        -3.534827         0.775450         2.068380
 H        -3.286366         1.672304         0.400013
 H        -2.803635        -0.720046        -0.369711
 H        -4.219185        -1.104641         2.300596
 H        -3.934790        -2.408362         1.104452
 H        -2.665449        -2.812430         3.342997
 H        -0.625005        -1.709425         3.706607
 H        -0.789943         0.712117         3.052399
 H         0.357254        -0.156104         1.867376
