19
Iteration:  1579
 O        -1.056704         1.137441        -0.099576
 C        -1.634094         0.408573         0.957838
 C        -3.056781         0.883408         1.135877
 C        -2.799077        -0.472235         0.525823
 C        -3.275573        -1.698536         1.369089
 C        -2.343568        -2.075603         2.556800
 O        -1.053202        -2.611701         2.275766
 C        -1.168345        -1.252804         2.838474
 C        -0.677658        -0.058909         2.014732
 H        -0.188976         0.692195        -0.372036
 H        -3.594009         0.844799         2.007597
 H        -3.338286         1.761634         0.421004
 H        -2.674713        -0.559150        -0.533588
 H        -4.253840        -1.428297         1.855126
 H        -3.268420        -2.451435         0.539080
 H        -2.847920        -2.606184         3.285612
 H        -1.002520        -1.149823         3.920894
 H        -0.595161         0.953548         2.518670
 H         0.381881        -0.183152         1.579498
