19
Iteration:   159
 O        -0.976160         0.939957        -0.297368
 C        -1.642736         0.356775         0.832972
 C        -3.187553         0.846194         1.089752
 C        -2.785576        -0.504944         0.548622
 C        -3.112805        -1.799042         1.260477
 C        -2.324646        -2.143884         2.510446
 O        -0.942879        -2.433542         2.396863
 C        -1.273892        -1.145209         3.018171
 C        -0.863408         0.150003         2.150522
 H        -0.245670         1.528762        -0.011872
 H        -3.512380         0.903999         2.142112
 H        -3.548690         1.537167         0.319852
 H        -2.885337        -0.527206        -0.608966
 H        -4.081149        -1.730077         1.717925
 H        -3.044453        -2.688919         0.613580
 H        -2.746901        -2.824557         3.248337
 H        -0.847528        -1.163982         4.035071
 H        -0.937846         0.919866         2.916030
 H         0.244763        -0.084002         1.920255
