19
Iteration:  1957
 O        -0.984749         0.998023        -0.219765
 C        -1.649897         0.396149         0.901094
 C        -2.981634         1.099789         1.404135
 C        -2.900563        -0.329448         0.676007
 C        -3.181522        -1.746940         1.260745
 C        -2.375480        -2.094119         2.414551
 O        -1.064280        -2.623979         2.262090
 C        -1.208204        -1.332078         2.842245
 C        -0.649279        -0.021010         2.043480
 H        -1.056847         0.359611        -0.924598
 H        -3.167881         1.138240         2.461111
 H        -3.558563         1.695755         0.771930
 H        -3.261806        -0.329021        -0.371667
 H        -4.146004        -1.645668         1.734222
 H        -3.115460        -2.583623         0.486236
 H        -2.961188        -2.476492         3.327019
 H        -0.946638        -1.285616         3.907781
 H        -0.492188         0.864304         2.780119
 H         0.256805        -0.296833         1.463133
