19
Iteration:  2889charge 0 multiplicity 1
 O        -0.962242         1.115811        -0.082840
 C        -1.653059         0.393169         0.915421
 C        -3.044168         0.915978         1.201564
 C        -2.867762        -0.442504         0.587020
 C        -3.369118        -1.609557         1.445288
 C        -2.390186        -2.049008         2.493796
 O        -1.056622        -2.635763         2.071740
 C        -1.055165        -1.309899         2.848223
 C        -0.702789        -0.060484         2.049732
 H        -0.238512         0.579901        -0.409815
 H        -3.128572         1.075602         2.274434
 H        -3.220661         1.701845         0.521982
 H        -3.310411        -0.601014        -0.432338
 H        -4.252352        -1.333995         1.993584
 H        -3.563562        -2.508808         0.789476
 H        -2.749730        -2.662699         3.398185
 H        -0.618029        -1.269197         3.847957
 H        -0.503784         0.676203         2.856981
 H         0.273626        -0.295354         1.657318
