19
Iteration:   779charge 0 multiplicity 1
 O        -0.959553         0.816125        -0.073781
 C        -1.721052         0.341200         0.975514
 C        -3.035669         0.891607         0.930446
 C        -2.895921        -0.581202         0.503061
 C        -3.297613        -1.634531         1.515529
 C        -2.263347        -2.120850         2.459669
 O        -0.924674        -2.253566         2.015954
 C        -1.081849        -1.256819         2.961891
 C        -0.926677         0.061779         2.260470
 H        -0.028956         1.022741         0.128665
 H        -3.559596         1.175399         1.820104
 H        -3.115729         1.582817         0.065882
 H        -2.954035        -0.762541        -0.582308
 H        -4.112705        -1.235890         2.209540
 H        -3.785755        -2.478316         0.982635
 H        -2.592730        -3.024705         3.020491
 H        -0.693934        -1.362019         3.892841
 H        -1.024230         0.881876         2.973619
 H         0.085410        -0.119910         1.947073
