19
Iteration:  2317charge 0 multiplicity 1
 O        -0.826651         0.690937        -0.163912
 C        -1.639528         0.421173         0.985573
 C        -3.033979         1.064787         1.251036
 C        -2.931845        -0.321649         0.761968
 C        -3.288426        -1.606040         1.476711
 C        -2.308493        -2.126475         2.475453
 O        -0.992953        -2.412139         1.908825
 C        -1.144902        -1.430479         2.762546
 C        -0.885165         0.035755         2.155424
 H        -1.523752         0.790865        -0.886400
 H        -3.244659         1.494059         2.207799
 H        -3.211073         1.921715         0.626367
 H        -2.978645        -0.506249        -0.285265
 H        -4.270515        -1.427742         2.003883
 H        -3.417925        -2.433796         0.754744
 H        -2.692474        -2.884726         3.227302
 H        -0.551383        -1.508773         3.656152
 H        -1.025168         0.603605         3.057365
 H         0.229208         0.132255         2.104217
