19
Iteration:  2578
 O        -1.110587         1.171417        -0.044739
 C        -1.585193         0.327939         0.959912
 C        -2.897315         0.755455         1.307847
 C        -2.859253        -0.515561         0.527141
 C        -3.350915        -1.690405         1.307392
 C        -2.391170        -1.951904         2.551788
 O        -1.139642        -2.502567         2.204679
 C        -1.166937        -1.184545         2.796063
 C        -0.531176        -0.135751         1.872014
 H        -0.225398         0.846131        -0.159326
 H        -3.345818         0.623928         2.324552
 H        -3.292298         1.772488         1.127003
 H        -3.120159        -0.498125        -0.574076
 H        -4.343295        -1.383724         1.756551
 H        -3.357670        -2.578530         0.667208
 H        -2.917207        -2.407750         3.316455
 H        -0.736575        -1.264501         3.855061
 H        -0.233132         0.641247         2.569525
 H         0.353865        -0.615500         1.508121
