19
Iteration:  1602charge 0 multiplicity 1
 O        -1.015852         1.112422        -0.199507
 C        -1.645814         0.400949         0.905008
 C        -3.051301         0.867839         1.217105
 C        -2.854290        -0.461241         0.490233
 C        -3.271455        -1.694692         1.339160
 C        -2.314751        -2.055907         2.418230
 O        -0.989776        -2.567767         2.390493
 C        -1.186813        -1.285642         2.879716
 C        -0.760808        -0.089746         2.056679
 H        -0.153120         1.391202         0.083950
 H        -3.317432         1.004990         2.248225
 H        -3.231648         1.811337         0.618624
 H        -3.135576        -0.418435        -0.549734
 H        -4.191215        -1.364244         1.883291
 H        -3.352208        -2.578093         0.676015
 H        -2.902304        -2.582725         3.124277
 H        -0.987470        -1.262235         3.941509
 H        -0.266326         0.747429         2.657493
 H         0.050796        -0.551734         1.405586
