19
Iteration:  3815charge 0 multiplicity 1
 O        -1.060432         0.964231        -0.254759
 C        -1.641225         0.397678         0.916224
 C        -2.997411         0.916561         1.426030
 C        -2.896246        -0.338507         0.590718
 C        -3.212357        -1.742692         1.202494
 C        -2.396829        -2.047994         2.423306
 O        -0.972911        -2.468199         2.260846
 C        -1.283727        -1.230977         2.933335
 C        -0.581102        -0.202947         2.062836
 H        -0.730010         1.853463        -0.146222
 H        -3.418490         0.614780         2.422477
 H        -3.249609         1.805345         0.858455
 H        -3.338565        -0.209556        -0.382100
 H        -4.233528        -1.641767         1.561751
 H        -3.104172        -2.511994         0.348243
 H        -2.951985        -2.612793         3.164138
 H        -0.949218        -1.224084         3.983032
 H        -0.302161         0.743600         2.569078
 H         0.321556        -0.676609         1.680463
