19
Iteration:  1189
 O        -0.979559         0.983516        -0.210569
 C        -1.674124         0.346227         0.821208
 C        -3.033913         0.850586         1.339641
 C        -2.942713        -0.387855         0.457186
 C        -3.120701        -1.775264         1.176567
 C        -2.328542        -2.045347         2.479858
 O        -0.931410        -2.438987         2.474956
 C        -1.259755        -1.153354         2.925316
 C        -0.777287        -0.144720         1.982214
 H        -0.780104         1.891231         0.052039
 H        -3.240297         0.910462         2.373356
 H        -3.449748         1.816891         1.007102
 H        -3.593704        -0.272640        -0.441903
 H        -4.218451        -1.900000         1.404275
 H        -2.776990        -2.662878         0.654618
 H        -2.891672        -2.669400         3.213439
 H        -0.990263        -1.072467         3.949977
 H        -0.511215         0.796037         2.588859
 H         0.080692        -0.741552         1.601618
