19
Iteration:   305charge 0 multiplicity 1
 O        -1.025040         1.070865        -0.240341
 C        -1.710022         0.432850         0.868506
 C        -3.138560         0.640112         1.357832
 C        -2.757431        -0.471354         0.487874
 C        -2.933850        -1.833744         1.070668
 C        -2.442178        -1.879000         2.530763
 O        -1.149925        -2.493152         2.680690
 C        -1.145583        -1.112066         2.917221
 C        -0.712170        -0.121679         1.845272
 H        -1.032650         1.975330         0.062799
 H        -3.461286         0.534997         2.322807
 H        -3.721874         1.358266         0.742601
 H        -2.970796        -0.461542        -0.548717
 H        -3.960819        -2.121764         1.013094
 H        -2.412538        -2.589895         0.477310
 H        -3.155535        -1.983677         3.375653
 H        -0.877412        -0.839493         3.944257
 H        -0.155456         0.748976         2.288937
 H         0.025145        -0.633379         1.169065
