19
Iteration:  3935
 O        -0.881288         0.912324        -0.241235
 C        -1.626387         0.381483         0.935047
 C        -2.968659         0.946437         1.294032
 C        -2.916989        -0.394595         0.589509
 C        -3.269066        -1.688654         1.428522
 C        -2.322300        -2.174517         2.518646
 O        -1.033174        -2.504457         1.996296
 C        -1.192506        -1.298439         2.908779
 C        -0.793531         0.044991         2.161128
 H        -1.278577         1.813991        -0.408394
 H        -3.118447         0.966131         2.382985
 H        -3.362805         1.757429         0.662994
 H        -3.123456        -0.429082        -0.535792
 H        -4.198329        -1.410741         1.920388
 H        -3.420000        -2.552843         0.792732
 H        -2.843011        -2.780999         3.241343
 H        -0.986572        -1.418725         4.002472
 H        -0.754668         0.851383         2.844876
 H         0.202371        -0.038186         1.795282
