19
Iteration:  2580charge 0 multiplicity 1
 O        -1.104215         1.179030        -0.051967
 C        -1.569011         0.328010         0.971669
 C        -2.910147         0.758804         1.311229
 C        -2.878720        -0.516718         0.512177
 C        -3.350792        -1.707155         1.290794
 C        -2.399438        -1.944936         2.565024
 O        -1.136052        -2.506194         2.210952
 C        -1.170514        -1.194224         2.786954
 C        -0.537772        -0.130412         1.878189
 H        -0.192721         0.817305        -0.222462
 H        -3.347723         0.679756         2.353266
 H        -3.254257         1.752418         1.195881
 H        -3.117784        -0.459781        -0.592759
 H        -4.293392        -1.366814         1.743526
 H        -3.371662        -2.589807         0.695033
 H        -2.883990        -2.445750         3.440915
 H        -0.737513        -1.266801         3.814867
 H        -0.183605         0.681672         2.603455
 H         0.417171        -0.588510         1.447424
