19
Iteration:   752
 O        -0.851480         0.847204        -0.079953
 C        -1.719038         0.419808         0.937726
 C        -3.183817         0.987879         0.866582
 C        -2.893766        -0.494036         0.575369
 C        -3.390243        -1.663576         1.594298
 C        -2.215038        -2.193677         2.419073
 O        -0.813053        -2.479431         2.075527
 C        -1.079731        -1.215784         2.860391
 C        -0.970259         0.116099         2.241593
 H         0.115393         0.663906         0.063510
 H        -3.819591         1.302056         1.755467
 H        -3.328478         1.500002        -0.047095
 H        -2.919781        -0.752223        -0.479120
 H        -4.169186        -1.387588         2.287208
 H        -3.856588        -2.383049         0.899493
 H        -2.491364        -2.835307         3.251547
 H        -0.953637        -1.280153         4.058146
 H        -1.273075         0.877508         3.059762
 H         0.164622         0.021299         2.091178
