19
Iteration:  2267charge 0 multiplicity 1
 O        -0.935863         0.898804        -0.134002
 C        -1.646207         0.358096         0.992155
 C        -2.959859         1.091265         1.123471
 C        -2.882662        -0.413813         0.707006
 C        -3.414197        -1.577442         1.575125
 C        -2.289672        -2.102383         2.452197
 O        -1.033086        -2.480232         1.898226
 C        -1.095657        -1.412938         2.762656
 C        -0.803074        -0.027662         2.162479
 H        -0.221883         0.284506        -0.249297
 H        -3.445870         1.221612         2.108519
 H        -3.508342         1.891628         0.505970
 H        -3.049048        -0.560624        -0.406682
 H        -4.223100        -1.406722         2.269344
 H        -3.718603        -2.386130         0.862291
 H        -2.521646        -2.784470         3.307172
 H        -0.623333        -1.499256         3.769526
 H        -0.955408         0.570501         3.118545
 H         0.271171         0.084650         1.989821
