19
Iteration:  2388
 O        -0.934196         0.917356        -0.156772
 C        -1.715413         0.498392         0.952974
 C        -3.062432         0.943503         1.066396
 C        -2.903922        -0.421972         0.660777
 C        -3.286655        -1.610704         1.539682
 C        -2.283333        -2.110804         2.507634
 O        -1.095766        -2.583649         1.963624
 C        -1.062235        -1.410843         2.805418
 C        -0.750244         0.010519         2.147769
 H        -0.066311         1.220032         0.246081
 H        -3.458662         1.230172         2.079847
 H        -3.229728         1.909747         0.568187
 H        -2.807682        -0.475771        -0.432661
 H        -4.041642        -1.132048         2.187975
 H        -3.814412        -2.446417         0.992059
 H        -2.725806        -2.662398         3.375073
 H        -0.631485        -1.492974         3.831306
 H        -0.873165         0.736711         3.026158
 H         0.298447         0.078660         1.849884
