19
Iteration:  3031charge 0 multiplicity 1
 O        -0.910421         0.867416        -0.148646
 C        -1.625922         0.313616         0.987402
 C        -2.999673         0.956070         1.308772
 C        -2.946771        -0.439181         0.664718
 C        -3.358816        -1.638630         1.441870
 C        -2.351933        -2.094631         2.444863
 O        -1.070874        -2.408597         1.907798
 C        -1.083223        -1.236178         2.789910
 C        -0.732372         0.026954         2.193591
 H        -0.091284         0.395757        -0.362911
 H        -3.382190         1.132753         2.302888
 H        -3.386407         1.609838         0.484898
 H        -3.211527        -0.427840        -0.412433
 H        -4.304889        -1.661979         1.952813
 H        -3.439723        -2.444242         0.616893
 H        -2.804424        -2.672856         3.384849
 H        -0.745556        -1.553465         3.771137
 H        -0.671719         0.771216         3.036143
 H         0.325593        -0.049381         1.913704
