19
Iteration:  1953charge 0 multiplicity 1
 O        -0.963748         1.011007        -0.205918
 C        -1.603706         0.376270         0.920235
 C        -3.004311         1.085004         1.386813
 C        -2.924834        -0.343762         0.665397
 C        -3.156852        -1.740772         1.248132
 C        -2.378150        -2.089125         2.474877
 O        -1.056237        -2.624946         2.251945
 C        -1.211256        -1.289002         2.830299
 C        -0.678511        -0.047671         2.033408
 H        -1.205625         0.434997        -0.996499
 H        -3.200615         1.218310         2.494574
 H        -3.583243         1.827948         0.780035
 H        -3.295230        -0.257290        -0.320345
 H        -4.164860        -1.599804         1.680333
 H        -3.140602        -2.537353         0.548595
 H        -2.925504        -2.604848         3.257869
 H        -0.947205        -1.378425         3.884920
 H        -0.463009         0.768404         2.652693
 H         0.146652        -0.367008         1.392900
