19
Iteration:  4181
 O        -1.026054         0.988769        -0.289289
 C        -1.646913         0.367802         0.958110
 C        -3.003721         0.961299         1.266667
 C        -2.852379        -0.472521         0.639513
 C        -3.213232        -1.672360         1.360080
 C        -2.339616        -1.946608         2.525056
 O        -1.134604        -2.574090         2.104577
 C        -1.077531        -1.348161         2.810714
 C        -0.731392        -0.008091         2.174011
 H        -0.607371         1.861402         0.019199
 H        -3.342040         0.982638         2.317344
 H        -3.493650         1.703897         0.572542
 H        -3.046044        -0.397432        -0.447148
 H        -4.239501        -1.837259         1.636923
 H        -2.981851        -2.664963         0.772334
 H        -2.703908        -2.774643         3.226179
 H        -0.820580        -1.434729         3.861004
 H        -0.764057         0.509040         3.101748
 H         0.346478        -0.068119         1.892342
