19
Iteration:  2590charge 0 multiplicity 1
 O        -1.031374         1.214745        -0.096567
 C        -1.569235         0.355898         0.935789
 C        -2.999819         0.796787         1.394487
 C        -2.921124        -0.462196         0.467804
 C        -3.312381        -1.770281         1.288929
 C        -2.476223        -1.946380         2.589191
 O        -1.122164        -2.553222         2.244848
 C        -1.115312        -1.254324         2.749619
 C        -0.539427        -0.123544         1.975253
 H        -0.324311         0.794971        -0.682019
 H        -3.120791         0.569506         2.489655
 H        -3.142475         1.735493         0.870790
 H        -3.068819        -0.311707        -0.649897
 H        -4.391241        -1.599453         1.611621
 H        -3.460378        -2.731694         0.824623
 H        -2.750853        -2.319107         3.526130
 H        -0.788582        -1.134341         3.850021
 H        -0.143366         0.757045         2.513383
 H         0.244331        -0.398311         1.281464
