19
Iteration:  2521charge 0 multiplicity 1
 O        -0.951032         1.050039        -0.145441
 C        -1.722792         0.387729         0.902874
 C        -3.031386         1.063476         1.290928
 C        -2.948195        -0.335396         0.704537
 C        -3.202507        -1.730973         1.286082
 C        -2.341262        -2.053187         2.541062
 O        -1.028775        -2.727943         2.229313
 C        -1.099449        -1.301901         2.775885
 C        -0.722119        -0.003180         2.008659
 H        -0.774353         0.365665        -0.848238
 H        -3.099431         1.218346         2.327894
 H        -3.222562         1.764009         0.469919
 H        -3.272441        -0.226133        -0.294912
 H        -4.284179        -1.723567         1.566765
 H        -3.247351        -2.497937         0.498751
 H        -2.916360        -2.447503         3.322405
 H        -0.821141        -1.336146         3.848602
 H        -0.710595         0.718118         2.778090
 H         0.243235        -0.215734         1.690567
