19
Iteration:  2471
 O        -0.898303         0.820945        -0.152044
 C        -1.644616         0.377022         0.994169
 C        -2.956447         0.962503         1.411866
 C        -2.888781        -0.428532         0.665856
 C        -3.315742        -1.714601         1.345487
 C        -2.324396        -2.051098         2.374027
 O        -1.037303        -2.373847         2.044117
 C        -1.206594        -1.205373         2.818282
 C        -0.703588        -0.005924         2.093833
 H        -1.428800         0.424220        -0.820342
 H        -3.255120         0.852236         2.447860
 H        -3.453728         1.570941         0.639484
 H        -3.286122        -0.215157        -0.384859
 H        -4.325937        -1.656013         1.786134
 H        -3.395607        -2.565814         0.650366
 H        -2.846797        -2.701029         3.200070
 H        -0.940498        -1.389058         3.881707
 H        -0.564968         0.760619         2.938985
 H         0.362546        -0.342961         1.759246
