19
Iteration:   448
 O        -0.961170         1.194436        -0.261613
 C        -1.619404         0.437955         0.841472
 C        -3.011495         0.735346         1.202629
 C        -2.780417        -0.637693         0.551469
 C        -3.148531        -1.878216         1.256548
 C        -2.321972        -2.045638         2.487404
 O        -0.965056        -2.516767         2.566281
 C        -1.312642        -1.045715         2.871717
 C        -0.832004        -0.046889         1.954192
 H        -1.324915         2.088979        -0.304451
 H        -3.221615         0.885928         2.329355
 H        -3.599035         1.519812         0.677519
 H        -3.016301        -0.619042        -0.476666
 H        -4.169863        -1.909206         1.614598
 H        -3.293813        -2.773777         0.615095
 H        -3.044947        -2.424162         3.354502
 H        -1.378224        -0.925524         3.991366
 H        -0.432379         0.771445         2.589350
 H         0.033933        -0.593061         1.570628
