19
Iteration:    77
 O        -0.783683         0.799989        -0.043113
 C        -1.675278         0.362973         0.905985
 C        -3.099378         0.770508         0.884418
 C        -2.806923        -0.616414         0.610446
 C        -3.204618        -1.822086         1.352110
 C        -2.265777        -2.053998         2.631081
 O        -0.989834        -2.387338         2.094966
 C        -1.102738        -1.153643         2.838114
 C        -1.057149         0.350132         2.329737
 H        -1.316632         1.004378        -0.874957
 H        -3.588768         1.208806         1.753549
 H        -3.339170         1.440794         0.149047
 H        -2.915854        -0.808881        -0.447049
 H        -4.284928        -1.720213         1.641442
 H        -3.151903        -2.661816         0.652821
 H        -2.666956        -2.688616         3.405801
 H        -0.653435        -1.117415         3.814887
 H        -1.551962         0.900375         3.086029
 H        -0.192360         0.877555         2.187661
