19
Iteration:  4767charge 0 multiplicity 1
 O        -1.060743         0.833179        -0.143489
 C        -1.603152         0.384571         1.009856
 C        -2.953244         0.940046         1.261152
 C        -2.829965        -0.444068         0.609579
 C        -3.339032        -1.717082         1.409641
 C        -2.289616        -2.105289         2.438030
 O        -0.962444        -2.383155         1.997575
 C        -1.241679        -1.219755         2.888557
 C        -0.730930        -0.068905         2.132126
 H        -0.945321         1.827475        -0.131576
 H        -3.415058         1.019306         2.219969
 H        -3.382269         1.707833         0.574163
 H        -2.933806        -0.343008        -0.506465
 H        -4.237781        -1.502498         1.927543
 H        -3.464478        -2.368696         0.579148
 H        -2.632315        -2.821488         3.130889
 H        -1.061607        -1.330137         3.959669
 H        -0.468969         0.720559         2.879515
 H         0.170646        -0.257883         1.527544
