19
Iteration:  1313
 O        -0.822725         0.759557        -0.080828
 C        -1.700683         0.372858         0.932929
 C        -3.076747         0.895726         1.111877
 C        -2.820000        -0.460105         0.635422
 C        -3.233032        -1.808737         1.418398
 C        -2.291468        -2.053515         2.502358
 O        -0.973134        -2.308205         1.966892
 C        -1.223700        -1.215117         2.910220
 C        -0.897418         0.069916         2.213262
 H        -1.386655         1.168811        -0.764286
 H        -3.512300         0.973248         2.090788
 H        -3.492952         1.731243         0.516741
 H        -2.832140        -0.584081        -0.429905
 H        -4.163309        -1.580188         1.836241
 H        -3.164788        -2.498602         0.591729
 H        -2.759660        -2.568385         3.314015
 H        -0.897082        -1.236580         4.007531
 H        -0.909749         1.008748         2.873150
 H         0.182943        -0.159245         1.908454
