19
Iteration:  2040charge 0 multiplicity 1
 O        -0.905317         0.984318        -0.094486
 C        -1.656293         0.393440         0.994825
 C        -3.074444         0.958392         1.160727
 C        -2.851851        -0.469274         0.605531
 C        -3.352094        -1.586362         1.511910
 C        -2.363606        -2.077552         2.473519
 O        -1.070800        -2.603681         2.065983
 C        -1.111244        -1.281875         2.808648
 C        -0.652388        -0.085311         2.006452
 H        -0.798212         1.946176        -0.148533
 H        -3.423645         0.965096         2.278333
 H        -3.374356         1.738211         0.493159
 H        -3.013575        -0.552723        -0.470132
 H        -4.308279        -1.297735         2.042471
 H        -3.724383        -2.429398         0.969871
 H        -2.703837        -2.663970         3.289257
 H        -0.687047        -1.334418         3.848030
 H        -0.489721         0.635717         2.769204
 H         0.290307        -0.230477         1.457265
