19
Iteration:  4440charge 0 multiplicity 1
 O        -0.992415         1.147217        -0.100876
 C        -1.667589         0.368914         0.890381
 C        -3.019884         0.822068         1.498865
 C        -3.024275        -0.410731         0.514956
 C        -3.105506        -1.755756         1.185510
 C        -2.390337        -1.963630         2.421531
 O        -1.045859        -2.585753         2.453139
 C        -1.223082        -1.094268         2.832625
 C        -0.663702        -0.272535         1.777443
 H        -0.219774         1.607052         0.341718
 H        -2.925166         0.787906         2.576170
 H        -3.431914         1.822246         1.186169
 H        -3.175714        -0.366816        -0.608308
 H        -4.198116        -1.898246         1.548383
 H        -2.913542        -2.536862         0.453604
 H        -3.065262        -2.273471         3.173020
 H        -0.870498        -0.997422         3.898371
 H         0.066536         0.496186         2.115322
 H        -0.125917        -0.858870         1.047094
