19
Iteration:  2897charge 0 multiplicity 1
 O        -0.993017         1.106064        -0.100013
 C        -1.603826         0.355886         0.945871
 C        -3.012722         0.899935         1.191729
 C        -2.862777        -0.464717         0.609443
 C        -3.391032        -1.584343         1.456010
 C        -2.292534        -2.100672         2.540101
 O        -1.121440        -2.579457         2.060080
 C        -1.145974        -1.316904         2.782791
 C        -0.624806        -0.033509         2.071093
 H        -0.164650         0.743426        -0.363112
 H        -3.528276         0.833279         2.227447
 H        -3.364191         1.682700         0.580407
 H        -2.976107        -0.537309        -0.498914
 H        -4.259160        -1.350827         2.005446
 H        -3.587202        -2.444853         0.787314
 H        -2.920686        -2.530935         3.316934
 H        -0.581762        -1.327642         3.746192
 H        -0.528071         0.716385         2.893996
 H         0.345102        -0.183429         1.592506
