19
Iteration:   466charge 0 multiplicity 1
 O        -0.910080         1.042394        -0.125274
 C        -1.690669         0.357430         0.858932
 C        -3.101559         0.752070         1.193520
 C        -2.886694        -0.535520         0.433387
 C        -3.172512        -1.883937         1.246813
 C        -2.354521        -2.086516         2.521538
 O        -0.958333        -2.428267         2.505615
 C        -1.295278        -1.063900         2.913212
 C        -0.623421         0.073644         1.955267
 H        -1.425904         1.765029        -0.517365
 H        -3.442904         0.597165         2.206322
 H        -3.705896         1.483220         0.754078
 H        -3.170475        -0.465067        -0.608728
 H        -4.273632        -1.826130         1.522113
 H        -3.130182        -2.758418         0.547840
 H        -2.879704        -2.579180         3.269022
 H        -1.107966        -0.848826         3.981529
 H        -0.347233         0.905251         2.632547
 H         0.289082        -0.364588         1.482299
