19
Iteration:  2670charge 0 multiplicity 1
 O        -1.064859         1.025354        -0.190983
 C        -1.687656         0.367272         0.938424
 C        -2.884493         0.958683         1.565193
 C        -2.892108        -0.295508         0.615028
 C        -3.128465        -1.716622         1.182029
 C        -2.407334        -2.059304         2.399375
 O        -1.060648        -2.575237         2.360114
 C        -1.288967        -1.157910         2.840645
 C        -0.632213        -0.163854         1.868519
 H        -0.401329         0.482884        -0.712255
 H        -3.165429         0.667490         2.503837
 H        -3.268289         1.889532         1.116554
 H        -3.428059        -0.368922        -0.253409
 H        -4.171246        -1.998030         1.362147
 H        -2.852633        -2.437985         0.454391
 H        -3.021071        -2.547849         3.226748
 H        -1.137288        -1.055690         3.868790
 H        -0.242679         0.742138         2.407618
 H         0.150236        -0.668720         1.233380
