19
Iteration:  3767charge 0 multiplicity 1
 O        -0.895116         1.147165        -0.256552
 C        -1.696651         0.385549         0.882476
 C        -3.059604         0.942366         1.397988
 C        -3.006660        -0.328233         0.595989
 C        -3.139996        -1.734256         1.238613
 C        -2.383510        -1.977657         2.508119
 O        -1.088316        -2.698085         2.401711
 C        -1.084414        -1.347578         2.825697
 C        -0.690618        -0.196408         1.958581
 H        -1.231208         2.092155        -0.205501
 H        -3.207051         0.819950         2.506667
 H        -3.637860         1.748826         0.786622
 H        -3.158651        -0.234531        -0.499393
 H        -4.237525        -2.101127         1.197465
 H        -2.514055        -2.367119         0.649813
 H        -3.002808        -2.333262         3.360055
 H        -0.853988        -0.934016         3.842707
 H        -0.458575         0.573972         2.636324
 H         0.179553        -0.291743         1.334380
