19
Iteration:  3716
 O        -1.125332         1.194601        -0.082038
 C        -1.552924         0.433528         0.900462
 C        -2.981748         0.750083         1.354319
 C        -2.829279        -0.427732         0.548768
 C        -3.288801        -1.805058         1.205583
 C        -2.478271        -1.948864         2.537920
 O        -1.052696        -2.527191         2.381343
 C        -1.215649        -1.210548         2.814429
 C        -0.488512        -0.243427         1.842310
 H        -0.647139         2.005437         0.186252
 H        -3.251333         0.439899         2.396496
 H        -3.361402         1.786564         0.955160
 H        -3.098115        -0.399721        -0.461535
 H        -4.384974        -1.675561         1.206355
 H        -3.208690        -2.752947         0.527943
 H        -3.123775        -2.325536         3.358903
 H        -0.923776        -0.911707         3.870465
 H         0.168115         0.581597         2.420829
 H         0.101568        -0.907323         1.128462
