19
Iteration:  2968charge 0 multiplicity 1
 O        -0.862379         0.906670        -0.103386
 C        -1.708691         0.399420         0.925087
 C        -2.965804         1.072181         1.281524
 C        -2.934941        -0.311957         0.658044
 C        -3.368879        -1.659587         1.415484
 C        -2.269980        -2.122892         2.421682
 O        -0.944636        -2.580137         2.086370
 C        -1.135347        -1.354818         2.787838
 C        -0.853630         0.006798         2.106412
 H        -0.887775         0.230406        -0.762748
 H        -3.255821         1.140249         2.309199
 H        -3.561740         1.656615         0.545575
 H        -3.219425        -0.436546        -0.348685
 H        -4.294595        -1.531841         2.030422
 H        -3.560223        -2.412005         0.657337
 H        -2.679363        -2.697895         3.280161
 H        -0.685653        -1.151816         3.730308
 H        -0.833508         0.825366         2.826281
 H         0.150682        -0.104569         1.668122
