19
Iteration:  1275charge 0 multiplicity 1
 O        -0.883051         0.997043        -0.096998
 C        -1.641206         0.354686         0.896219
 C        -3.091461         0.927024         1.019590
 C        -2.939842        -0.496849         0.543940
 C        -3.308623        -1.713355         1.384746
 C        -2.294427        -2.060353         2.482158
 O        -0.886185        -2.552460         2.259780
 C        -1.160870        -1.264308         2.901043
 C        -0.823551         0.024466         2.094222
 H        -1.043138         1.939496        -0.122589
 H        -3.478138         0.977273         2.048802
 H        -3.360032         1.625212         0.225329
 H        -3.068701        -0.656615        -0.557233
 H        -4.223812        -1.667944         2.090771
 H        -3.658489        -2.592604         0.830067
 H        -2.673395        -2.497447         3.469040
 H        -0.998635        -1.350225         3.923518
 H        -0.828226         0.882974         2.737532
 H         0.176053         0.056364         1.703543
