19
Iteration:  1732charge 0 multiplicity 1
 O        -1.048595         1.233298        -0.017513
 C        -1.712785         0.363654         0.821754
 C        -3.043709         0.846447         1.339306
 C        -2.848322        -0.459977         0.485953
 C        -3.127098        -1.747658         1.198259
 C        -2.394803        -1.907672         2.573499
 O        -1.149409        -2.612622         2.446582
 C        -1.139210        -1.164558         2.810212
 C        -0.619093        -0.266760         1.830090
 H        -0.104724         0.936178        -0.127445
 H        -3.168599         0.771786         2.479911
 H        -3.468179         1.688342         0.888280
 H        -3.170045        -0.341412        -0.566846
 H        -4.224126        -1.787471         1.226605
 H        -2.887403        -2.608005         0.623588
 H        -2.862798        -2.202347         3.473258
 H        -0.963257        -0.902846         3.864840
 H        -0.007293         0.500200         2.297348
 H         0.037840        -0.848172         1.094468
