19
Iteration:    24
 O        -0.848312         0.649031        -0.069903
 C        -1.765896         0.330081         0.944360
 C        -3.180432         0.856980         0.814220
 C        -2.871165        -0.611377         0.475064
 C        -3.308111        -1.662964         1.503166
 C        -2.117239        -2.136189         2.360228
 O        -0.713884        -2.237821         2.106856
 C        -1.314611        -1.124697         3.004962
 C        -1.042731         0.220296         2.324361
 H        -0.007034         0.959246         0.390658
 H        -3.862035         1.088512         1.706796
 H        -3.344795         1.515071        -0.019095
 H        -2.700035        -0.916942        -0.469603
 H        -4.000621        -1.226812         2.226735
 H        -3.824539        -2.507822         1.100513
 H        -2.457682        -2.972780         2.966885
 H        -1.000893        -1.224011         4.053811
 H        -1.265450         1.100496         2.962908
 H         0.074054         0.229887         2.181978
