19
Iteration:  1852
 O        -1.136501         1.178503        -0.192373
 C        -1.578865         0.382106         0.908886
 C        -2.987274         0.976106         1.397386
 C        -2.909172        -0.368786         0.620377
 C        -3.109014        -1.765594         1.196254
 C        -2.458384        -1.953340         2.492998
 O        -1.116142        -2.641988         2.432462
 C        -1.188298        -1.282240         2.813860
 C        -0.562312        -0.201636         1.879418
 H        -0.268424         0.810160        -0.372483
 H        -3.264009         0.951405         2.483359
 H        -3.495323         1.918798         1.000814
 H        -3.158447        -0.443716        -0.495701
 H        -4.197583        -1.953913         1.250635
 H        -2.806034        -2.524329         0.516133
 H        -2.975898        -2.448863         3.278286
 H        -1.003597        -1.013689         3.878956
 H        -0.052516         0.470571         2.529264
 H         0.177840        -0.691599         1.204210
