19
Iteration:  4122
 O        -0.845723         0.931915        -0.213811
 C        -1.708956         0.306863         0.896870
 C        -3.013287         1.020652         1.247122
 C        -2.956877        -0.450383         0.598495
 C        -3.315067        -1.615003         1.435150
 C        -2.273440        -2.267751         2.442350
 O        -0.958012        -2.440394         2.075519
 C        -1.206653        -1.281536         2.894570
 C        -0.801983        -0.032066         2.147403
 H        -0.715539         1.817146         0.182375
 H        -3.214152         1.239090         2.303369
 H        -3.379044         1.725210         0.577907
 H        -3.388485        -0.459834        -0.403858
 H        -4.171645        -1.250874         2.078613
 H        -3.611547        -2.390001         0.794170
 H        -2.640083        -3.002625         3.146225
 H        -0.888122        -1.226547         3.977565
 H        -0.524885         0.869335         2.814912
 H         0.118643        -0.270642         1.604597
