19
Iteration:  2234
 O        -0.953053         0.944069        -0.185762
 C        -1.595834         0.350678         1.003349
 C        -3.012853         0.942332         1.129496
 C        -2.828882        -0.484383         0.665036
 C        -3.407868        -1.533294         1.649080
 C        -2.355442        -2.149612         2.452682
 O        -1.134274        -2.382129         1.838259
 C        -1.088725        -1.364394         2.789365
 C        -0.696213        -0.003782         2.220089
 H        -0.012758         0.867349         0.044570
 H        -3.529398         0.750167         2.072250
 H        -3.281998         1.739254         0.369150
 H        -2.802694        -0.716349        -0.419953
 H        -4.157118        -1.153792         2.331929
 H        -3.900735        -2.382807         1.114449
 H        -2.616979        -2.823433         3.272569
 H        -0.582756        -1.704506         3.723129
 H        -0.789745         0.680749         3.124073
 H         0.299900        -0.238975         1.819687
