19
Iteration:  4072
 O        -0.917527         0.760456        -0.116831
 C        -1.629167         0.470637         1.009637
 C        -3.132186         0.973694         1.191147
 C        -2.880730        -0.417010         0.638361
 C        -3.226389        -1.614397         1.379116
 C        -2.301924        -2.006165         2.516041
 O        -1.127189        -2.541658         1.947521
 C        -1.036375        -1.402936         2.864507
 C        -0.768624         0.072481         2.162662
 H        -1.034377         1.664983        -0.374399
 H        -3.679180         0.836585         2.144867
 H        -3.366304         1.893077         0.563872
 H        -2.829838        -0.572893        -0.394973
 H        -4.142709        -1.537272         1.951323
 H        -3.162469        -2.583746         0.732690
 H        -2.811813        -2.633603         3.354450
 H        -0.379926        -1.462936         3.694249
 H        -1.020314         0.799880         2.935832
 H         0.252072         0.262059         1.774546
