19
Iteration:  3715
 O        -1.123872         1.191689        -0.081975
 C        -1.558069         0.435724         0.900799
 C        -2.971375         0.744785         1.357928
 C        -2.839283        -0.418069         0.532941
 C        -3.283619        -1.807091         1.207982
 C        -2.482675        -1.954307         2.549535
 O        -1.049986        -2.524516         2.380762
 C        -1.212628        -1.204465         2.813896
 C        -0.486549        -0.246854         1.843863
 H        -0.609311         1.997203         0.191565
 H        -3.259308         0.405636         2.399964
 H        -3.380801         1.776826         0.960380
 H        -3.093427        -0.345741        -0.483419
 H        -4.393508        -1.677331         1.181707
 H        -3.222667        -2.754995         0.548416
 H        -3.129028        -2.354463         3.362729
 H        -0.938087        -0.919353         3.884998
 H         0.140593         0.570642         2.392081
 H         0.078095        -0.874738         1.121570
