19
Iteration:  1047charge 0 multiplicity 1
 O        -1.194184         1.153028        -0.238360
 C        -1.736116         0.421971         0.856021
 C        -2.980891         0.766595         1.414738
 C        -2.838373        -0.399063         0.467673
 C        -2.880159        -1.790364         0.968339
 C        -2.417632        -1.893465         2.570707
 O        -1.121543        -2.661827         2.702150
 C        -1.182689        -1.131880         2.965362
 C        -0.635167        -0.231153         1.806226
 H        -1.050519         2.087142        -0.059250
 H        -3.174648         0.623761         2.493786
 H        -3.397004         1.588403         0.942058
 H        -3.274490        -0.146418        -0.480509
 H        -3.972189        -2.044776         0.866807
 H        -2.267265        -2.609994         0.544232
 H        -3.250378        -1.952240         3.260916
 H        -1.001095        -0.842297         4.008446
 H         0.067926         0.589166         2.128585
 H        -0.180228        -0.974604         1.117033
