19
Iteration:  4115charge 0 multiplicity 1
 O        -0.862420         0.947156        -0.218722
 C        -1.660102         0.298787         0.905960
 C        -2.974398         1.055373         1.245211
 C        -2.935561        -0.412732         0.599481
 C        -3.318134        -1.680423         1.508517
 C        -2.318426        -2.232242         2.441706
 O        -0.939736        -2.459648         2.083489
 C        -1.189693        -1.277769         2.854496
 C        -0.843014        -0.026450         2.153462
 H        -0.833961         1.861276         0.033314
 H        -3.247130         1.192133         2.285256
 H        -3.290486         1.846999         0.505054
 H        -3.247257        -0.486259        -0.404258
 H        -4.231162        -1.455037         2.029937
 H        -3.704122        -2.551801         0.843536
 H        -2.776209        -3.166143         2.909133
 H        -0.869079        -1.219394         3.885756
 H        -0.803879         0.849360         2.723065
 H         0.123211        -0.278717         1.657985
