19
Iteration:  4137charge 0 multiplicity 1
 O        -0.917326         0.849548        -0.113339
 C        -1.647271         0.458754         0.929963
 C        -3.089198         0.919806         1.217603
 C        -2.923555        -0.372086         0.604327
 C        -3.318923        -1.667112         1.436037
 C        -2.303918        -2.077932         2.427050
 O        -0.927770        -2.464028         2.053931
 C        -1.187005        -1.274033         2.913477
 C        -0.750348        -0.072507         2.067695
 H        -0.284237         1.597996         0.105233
 H        -3.354188         0.892657         2.266813
 H        -3.564865         1.736813         0.576928
 H        -3.148167        -0.432528        -0.445674
 H        -4.227601        -1.479426         1.999023
 H        -3.745918        -2.503223         0.750470
 H        -2.849007        -2.771585         3.187076
 H        -0.790539        -1.471662         3.905928
 H        -0.660490         0.801442         2.661330
 H         0.198848        -0.427349         1.600771
