19
Iteration:   167
 O        -0.929032         0.873962        -0.270067
 C        -1.672657         0.417033         0.840880
 C        -3.186793         0.837931         1.132397
 C        -2.795096        -0.504601         0.527593
 C        -3.083861        -1.835852         1.221596
 C        -2.287693        -2.060834         2.548390
 O        -1.005887        -2.422745         2.391880
 C        -1.198450        -1.154053         3.012653
 C        -0.834310         0.102778         2.106038
 H        -0.501206         1.683967         0.143499
 H        -3.613009         0.786235         2.159298
 H        -3.841623         1.558336         0.457876
 H        -3.150496        -0.556650        -0.431865
 H        -4.222212        -1.860483         1.311530
 H        -2.978132        -2.655552         0.516509
 H        -2.873913        -2.738430         3.203723
 H        -0.965456        -1.124448         4.124235
 H        -0.996574         0.949560         2.776804
 H         0.219490         0.198143         1.931617
