19
Iteration:  3505charge 0 multiplicity 1
 O        -0.890976         1.019502        -0.174258
 C        -1.665585         0.305070         0.855301
 C        -2.878637         0.947672         1.398086
 C        -2.951268        -0.415843         0.629870
 C        -3.240700        -1.737227         1.278348
 C        -2.367654        -2.050285         2.511023
 O        -1.044565        -2.519678         2.189252
 C        -1.230073        -1.212436         2.815175
 C        -0.743470        -0.096620         2.028757
 H        -1.311981         1.882343        -0.181770
 H        -3.043755         0.885660         2.434824
 H        -3.482963         1.678100         0.860865
 H        -3.389509        -0.289310        -0.435212
 H        -4.181443        -1.727673         1.741090
 H        -3.024161        -2.603130         0.631690
 H        -2.949072        -2.731016         3.129207
 H        -0.908973        -1.174926         3.835517
 H        -0.572525         0.736635         2.771814
 H         0.171895        -0.447893         1.587306
