19
Iteration:  3546
 O        -1.108829         1.110080        -0.139127
 C        -1.635169         0.410556         1.002838
 C        -3.089307         0.926076         1.259856
 C        -2.793623        -0.384400         0.587131
 C        -3.119256        -1.673962         1.316908
 C        -2.374942        -1.943142         2.493525
 O        -1.086894        -2.683066         2.334722
 C        -1.145482        -1.361375         2.790305
 C        -0.657293        -0.183294         1.881333
 H        -0.761647         1.978786         0.212998
 H        -3.544072         0.991895         2.234680
 H        -3.340401         1.648842         0.467676
 H        -2.707456        -0.489343        -0.562834
 H        -4.233424        -1.463054         1.591273
 H        -3.226740        -2.544506         0.680365
 H        -2.947110        -2.226281         3.388453
 H        -0.793426        -1.185180         3.866533
 H        -0.310848         0.658815         2.561095
 H         0.176813        -0.602791         1.268792
