19
Iteration:  2588
 O        -1.042948         1.207702        -0.091294
 C        -1.553848         0.347797         0.952517
 C        -2.992023         0.783462         1.386055
 C        -2.925577        -0.477688         0.462603
 C        -3.314773        -1.760705         1.280143
 C        -2.471307        -1.946635         2.598505
 O        -1.122814        -2.542697         2.238598
 C        -1.131487        -1.244305         2.749504
 C        -0.534040        -0.122419         1.963933
 H        -0.304194         0.824677        -0.599503
 H        -3.148031         0.603670         2.463964
 H        -3.140623         1.829996         0.925189
 H        -3.061882        -0.316666        -0.640240
 H        -4.383251        -1.531102         1.647609
 H        -3.479596        -2.757451         0.798417
 H        -2.702374        -2.335680         3.514922
 H        -0.764064        -1.146160         3.841593
 H        -0.137904         0.707673         2.483943
 H         0.244753        -0.375763         1.308467
