19
Iteration:  1391charge 0 multiplicity 1
 O        -0.865897         0.924948        -0.099735
 C        -1.698232         0.348625         0.979600
 C        -3.135533         1.017679         0.923876
 C        -2.925444        -0.503503         0.571966
 C        -3.405820        -1.736366         1.558593
 C        -2.236814        -2.165886         2.441810
 O        -0.937933        -2.429295         2.030156
 C        -1.129079        -1.219943         2.887286
 C        -0.863404         0.035122         2.236976
 H         0.041889         0.991324         0.174227
 H        -3.440277         1.220406         1.907525
 H        -3.165751         1.570546        -0.006706
 H        -2.713143        -0.619870        -0.506242
 H        -4.184215        -1.430863         2.240865
 H        -3.804034        -2.484071         0.866959
 H        -2.603876        -2.826751         3.158626
 H        -0.594387        -1.472355         3.872127
 H        -0.795728         0.841682         3.036027
 H         0.253002         0.063123         1.978811
