19
Iteration:   394
 O        -1.093743         0.949110        -0.123064
 C        -1.740247         0.402715         0.921906
 C        -3.241312         0.772595         1.264469
 C        -2.765171        -0.496272         0.469035
 C        -2.911109        -1.857329         1.079521
 C        -2.432154        -1.770684         2.499296
 O        -1.039879        -2.507738         2.615910
 C        -1.155488        -1.167800         2.850096
 C        -0.642902        -0.071736         1.871973
 H        -0.376741         1.535717         0.051602
 H        -3.599419         0.787016         2.383110
 H        -3.800234         1.484232         0.687922
 H        -3.108093        -0.372686        -0.502471
 H        -3.984042        -2.038928         1.066846
 H        -2.427841        -2.690315         0.528674
 H        -3.280326        -1.919807         3.299045
 H        -1.132392        -0.842552         3.947889
 H        -0.374011         0.795103         2.588511
 H         0.282620        -0.449103         1.415222
