19
Iteration:  3406
 O        -0.880649         1.018187        -0.172315
 C        -1.633436         0.410157         0.948149
 C        -3.085598         0.924220         1.144524
 C        -2.825154        -0.468363         0.654423
 C        -3.312543        -1.602286         1.528417
 C        -2.299368        -2.136225         2.503860
 O        -1.090303        -2.577784         1.971464
 C        -1.144214        -1.280505         2.853360
 C        -0.797433         0.024306         2.131547
 H        -0.080349         1.441841         0.251586
 H        -3.670070         1.058165         2.072511
 H        -3.356012         1.587434         0.400112
 H        -3.099635        -0.804063        -0.362405
 H        -4.145315        -1.354562         2.218375
 H        -3.512576        -2.635216         0.976212
 H        -2.871657        -2.950717         3.040364
 H        -0.561671        -1.416268         3.739589
 H        -0.745375         0.947767         2.751484
 H         0.154856        -0.283068         1.761840
