19
Iteration:   133charge 0 multiplicity 1
 O        -1.064989         1.011905        -0.125309
 C        -1.658192         0.357839         0.905161
 C        -3.043569         0.913254         0.926090
 C        -2.739010        -0.646087         0.493037
 C        -3.301820        -1.789519         1.353973
 C        -2.288175        -2.131891         2.456707
 O        -0.833332        -2.337587         2.343010
 C        -1.291891        -1.152610         2.983886
 C        -0.857125         0.064515         2.148690
 H        -0.157367         0.663233        -0.242261
 H        -3.722493         0.862688         1.788998
 H        -3.239145         1.586519         0.050164
 H        -2.792676        -0.760992        -0.502487
 H        -4.148139        -1.486925         2.017172
 H        -3.495125        -2.687696         0.793897
 H        -2.520784        -2.822516         3.266285
 H        -1.146819        -1.101554         4.103184
 H        -0.988136         0.754099         2.949415
 H         0.147537        -0.080380         1.900605
