19
Iteration:   402charge 0 multiplicity 1
 O        -1.128916         1.007810        -0.179817
 C        -1.705815         0.353142         0.934675
 C        -3.171053         0.789218         1.218277
 C        -2.821692        -0.499449         0.457863
 C        -2.915782        -1.843768         1.093083
 C        -2.410688        -1.776791         2.502756
 O        -1.055673        -2.529055         2.596361
 C        -1.145326        -1.139869         2.860233
 C        -0.670218        -0.087332         2.007991
 H        -0.528372         1.627973         0.210578
 H        -3.615041         0.739839         2.200415
 H        -3.655062         1.507144         0.615889
 H        -2.989901        -0.476373        -0.590295
 H        -3.937224        -2.201756         1.198704
 H        -2.508956        -2.735503         0.559689
 H        -3.063700        -1.859658         3.400573
 H        -1.067531        -1.077338         3.955206
 H        -0.305271         0.787103         2.415230
 H         0.109915        -0.421469         1.298487
