19
Iteration:  3940
 O        -0.878748         0.894434        -0.224037
 C        -1.649716         0.391566         0.904639
 C        -2.950958         0.970237         1.266180
 C        -2.909358        -0.396375         0.647330
 C        -3.221300        -1.703025         1.390299
 C        -2.365986        -2.114035         2.542085
 O        -1.032223        -2.470592         1.994285
 C        -1.190618        -1.331190         2.897638
 C        -0.803059         0.017211         2.144336
 H        -1.244829         1.772060        -0.336910
 H        -3.259628         0.927564         2.317140
 H        -3.432764         1.821257         0.781296
 H        -3.217038        -0.530945        -0.368470
 H        -4.196295        -1.544591         1.932802
 H        -3.449752        -2.600157         0.688395
 H        -2.804654        -2.847496         3.277694
 H        -0.753169        -1.494973         3.882906
 H        -0.863037         0.864216         2.923615
 H         0.300838        -0.072885         1.873590
