19
Iteration:  3249
 O        -0.774623         1.027445        -0.072495
 C        -1.585848         0.384236         0.975113
 C        -3.092242         0.906846         1.110743
 C        -2.858772        -0.538567         0.668588
 C        -3.394681        -1.591030         1.595970
 C        -2.361982        -2.053427         2.593002
 O        -1.051494        -2.516768         1.797247
 C        -1.118638        -1.315394         2.772857
 C        -0.830110        -0.019138         2.185537
 H        -1.173983         0.914312        -0.956505
 H        -3.362840         1.079915         2.208037
 H        -3.404616         1.594325         0.261232
 H        -2.834503        -0.811656        -0.390703
 H        -4.297116        -1.221278         2.095666
 H        -3.679782        -2.509820         0.993335
 H        -2.508492        -2.768168         3.401600
 H        -0.495576        -1.555038         3.726362
 H        -0.952326         0.754458         3.002685
 H         0.244619         0.163900         2.050052
