19
Iteration:  2365
 O        -0.858379         0.781966        -0.111173
 C        -1.658619         0.324718         0.937946
 C        -3.001933         0.940573         1.223201
 C        -2.883170        -0.439881         0.638298
 C        -3.403908        -1.502723         1.545621
 C        -2.288928        -2.104610         2.514892
 O        -1.001273        -2.396724         1.883638
 C        -1.107606        -1.344285         2.803354
 C        -0.827472        -0.017444         2.141887
 H        -0.708598         1.702511         0.070934
 H        -3.763557         0.979032         2.024194
 H        -3.381508         1.679087         0.459155
 H        -3.253672        -0.421643        -0.429623
 H        -4.352455        -1.068590         1.906642
 H        -3.646444        -2.415076         0.886263
 H        -2.554071        -2.940094         3.272732
 H        -0.596818        -1.412887         3.778246
 H        -0.701979         0.667634         3.005298
 H         0.185072        -0.124874         1.811774
