19
Iteration:   678charge 0 multiplicity 1
 O        -0.698255         0.700797        -0.002675
 C        -1.779284         0.371662         1.023967
 C        -3.173933         0.872564         0.960188
 C        -2.814224        -0.571275         0.599392
 C        -3.288135        -1.704840         1.509662
 C        -2.178917        -2.083401         2.453541
 O        -0.949716        -2.247552         1.948162
 C        -1.225433        -1.142996         2.918554
 C        -0.955047         0.139202         2.215968
 H        -1.232864         0.797698        -0.818612
 H        -3.814195         0.868624         1.867349
 H        -3.453428         1.564291         0.236380
 H        -2.917772        -0.636488        -0.493702
 H        -4.236770        -1.550166         2.126905
 H        -3.518909        -2.593984         0.824778
 H        -2.490636        -2.934006         3.139985
 H        -0.738462        -1.345238         3.838091
 H        -0.941557         1.047288         2.900987
 H         0.110081         0.054915         1.893767
