19
Iteration:  4386charge 0 multiplicity 1
 O        -1.173906         1.228588        -0.251412
 C        -1.571640         0.406590         0.846822
 C        -2.890113         0.916475         1.482941
 C        -2.857548        -0.329383         0.506349
 C        -3.080766        -1.831673         1.184512
 C        -2.449727        -1.978740         2.555706
 O        -1.225221        -2.735310         2.471203
 C        -1.112029        -1.279572         2.852245
 C        -0.586675        -0.201079         1.866028
 H        -1.170530         2.225313        -0.147521
 H        -3.184041         0.630148         2.525670
 H        -3.434456         1.742115         1.035705
 H        -3.491651        -0.264738        -0.431370
 H        -4.123962        -2.321631         1.127015
 H        -2.346162        -2.409417         0.640044
 H        -3.109819        -1.964386         3.374378
 H        -0.892071        -1.024198         3.940505
 H        -0.152970         0.682306         2.451553
 H         0.269544        -0.533434         1.253382
