19
Iteration:  4358
 O        -1.008640         1.114603        -0.130908
 C        -1.689557         0.398397         0.858069
 C        -2.987182         0.923922         1.460323
 C        -2.922865        -0.315301         0.609307
 C        -3.050323        -1.770131         1.187005
 C        -2.395554        -1.991287         2.453315
 O        -1.118799        -2.667371         2.506188
 C        -1.130044        -1.250570         2.810688
 C        -0.677181        -0.212164         1.755803
 H        -0.947886         2.098101         0.015232
 H        -3.179874         0.762803         2.486469
 H        -3.536674         1.784998         0.967711
 H        -3.538541        -0.378561        -0.251824
 H        -4.072372        -2.045386         1.298261
 H        -2.644506        -2.469008         0.416057
 H        -3.139000        -2.233317         3.281877
 H        -1.158445        -0.838111         3.808180
 H        -0.068419         0.545193         2.205531
 H        -0.038021        -0.689971         0.981423
