19
Iteration:  2952
 O        -0.892238         0.973856        -0.087218
 C        -1.635747         0.383654         0.935504
 C        -3.043299         1.007061         1.242138
 C        -2.978785        -0.476255         0.605783
 C        -3.306694        -1.652283         1.433026
 C        -2.328249        -2.103908         2.532265
 O        -1.031981        -2.515302         2.006781
 C        -1.120159        -1.293224         2.783509
 C        -0.726338        -0.007982         2.093469
 H        -0.622783         0.248521        -0.685278
 H        -3.292278         1.151781         2.341046
 H        -3.046676         1.997357         0.866018
 H        -3.273194        -0.371805        -0.481850
 H        -4.247659        -1.496110         1.962705
 H        -3.550770        -2.535368         0.785553
 H        -2.889278        -2.774836         3.288965
 H        -0.774223        -1.487766         3.873856
 H        -0.732343         0.723937         2.943685
 H         0.294401         0.017171         1.694988
