19
Iteration:  4836charge 0 multiplicity 1
 O        -0.925294         0.908216        -0.096053
 C        -1.728727         0.407790         0.981533
 C        -3.041641         0.999409         1.186217
 C        -2.985395        -0.415564         0.632917
 C        -3.329595        -1.708676         1.403592
 C        -2.296116        -2.094470         2.531917
 O        -1.011036        -2.558059         2.035206
 C        -1.053617        -1.299348         2.795441
 C        -0.715837        -0.006285         2.049156
 H        -0.405850         1.656414         0.220519
 H        -3.569936         1.040405         2.205742
 H        -3.387968         1.749791         0.491137
 H        -3.287599        -0.483815        -0.408785
 H        -4.319799        -1.571386         1.722737
 H        -3.143567        -2.553977         0.724830
 H        -2.686188        -2.436905         3.484154
 H        -0.567560        -1.329668         3.827270
 H        -0.814533         0.839212         2.792270
 H         0.379333        -0.023908         1.754117
