19
Iteration:  4625
 O        -0.923287         0.986113        -0.200260
 C        -1.635393         0.421363         0.842618
 C        -2.951971         0.887210         1.369935
 C        -2.886017        -0.427915         0.644969
 C        -3.255251        -1.767873         1.304204
 C        -2.357931        -2.070702         2.520035
 O        -1.109522        -2.519993         2.137288
 C        -1.187194        -1.193359         2.854629
 C        -0.729704        -0.071018         2.043991
 H        -0.800880         1.935195         0.071864
 H        -3.102265         0.818879         2.470633
 H        -3.619113         1.497355         0.812642
 H        -3.263496        -0.290124        -0.347447
 H        -4.244767        -1.843370         1.670609
 H        -3.080456        -2.553438         0.585888
 H        -2.896717        -2.584353         3.285002
 H        -0.576955        -1.269794         3.800843
 H        -0.783133         0.827557         2.695167
 H         0.338365        -0.239495         1.807213
