19
Iteration:  3900
 O        -0.965298         0.962624        -0.095374
 C        -1.683602         0.360438         0.996853
 C        -3.034548         0.950191         1.167326
 C        -2.904297        -0.407986         0.518704
 C        -3.247311        -1.614123         1.420427
 C        -2.405307        -2.109955         2.504522
 O        -0.958329        -2.507717         2.120074
 C        -1.114715        -1.363557         2.814865
 C        -0.691894        -0.105965         2.068798
 H        -1.127168         1.948946        -0.109554
 H        -3.517042         1.166243         2.220541
 H        -3.366493         1.750456         0.520143
 H        -2.803846        -0.384079        -0.517252
 H        -4.201122        -1.307149         1.950726
 H        -3.691388        -2.402848         0.929259
 H        -2.742234        -2.679081         3.388061
 H        -1.051340        -1.261245         3.963423
 H        -0.502024         0.713506         2.733643
 H         0.172118        -0.250158         1.440921
