19
Iteration:  1731charge 0 multiplicity 1
 O        -1.045419         1.236147        -0.014019
 C        -1.701627         0.365154         0.822348
 C        -3.042899         0.848306         1.342999
 C        -2.848857        -0.465141         0.493112
 C        -3.137130        -1.750622         1.201756
 C        -2.389093        -1.909515         2.568593
 O        -1.146283        -2.611511         2.446143
 C        -1.143768        -1.157561         2.806119
 C        -0.627161        -0.268114         1.824351
 H        -0.104586         0.897617        -0.137121
 H        -3.200242         0.778576         2.451950
 H        -3.493725         1.668334         0.856881
 H        -3.166273        -0.321676        -0.542209
 H        -4.235230        -1.804578         1.223185
 H        -2.875272        -2.587822         0.603060
 H        -2.899300        -2.213379         3.484267
 H        -0.939280        -0.900578         3.857981
 H        -0.001507         0.491132         2.262198
 H         0.062514        -0.852678         1.142880
