19
Iteration:   413
 O        -1.134733         1.094610        -0.226426
 C        -1.701685         0.346535         0.918465
 C        -3.082334         0.777203         1.153785
 C        -2.872785        -0.524957         0.430538
 C        -3.007074        -1.854119         1.161797
 C        -2.332804        -1.899161         2.546559
 O        -1.109162        -2.545605         2.563775
 C        -1.166079        -1.116861         2.976290
 C        -0.665645        -0.038966         1.982743
 H        -0.721164         1.904853         0.130474
 H        -3.524434         0.654876         2.139527
 H        -3.285921         1.644581         0.605375
 H        -2.868734        -0.540741        -0.619710
 H        -4.032555        -2.209260         1.203021
 H        -2.319528        -2.472751         0.553532
 H        -3.040471        -2.280152         3.322307
 H        -0.901353        -0.870972         4.016363
 H        -0.257802         0.731832         2.576861
 H         0.187218        -0.530522         1.458242
