19
Iteration:  1443
 O        -0.863119         0.815110        -0.134890
 C        -1.683002         0.453474         0.972907
 C        -3.093152         0.899670         1.084438
 C        -2.840148        -0.557648         0.547651
 C        -3.254779        -1.669905         1.459929
 C        -2.339965        -2.020747         2.552739
 O        -1.023857        -2.480572         1.954593
 C        -1.078595        -1.255583         2.858695
 C        -0.870608         0.141617         2.258713
 H        -0.141699         1.416692        -0.012292
 H        -3.504671         0.762873         2.088041
 H        -3.460942         1.697013         0.363272
 H        -3.001493        -0.733532        -0.523800
 H        -4.379697        -1.518098         1.812117
 H        -3.522619        -2.506561         0.787088
 H        -2.711323        -2.792807         3.295050
 H        -0.798343        -1.600669         3.881953
 H        -1.168286         0.827160         3.104363
 H         0.213101         0.294791         2.075636
