19
Iteration:  2534
 O        -0.999762         1.099779        -0.149205
 C        -1.630757         0.463520         0.929082
 C        -2.982718         1.026708         1.258755
 C        -2.954936        -0.391326         0.605694
 C        -3.280656        -1.693205         1.378154
 C        -2.361133        -2.136813         2.492535
 O        -1.085798        -2.657589         2.269517
 C        -1.103327        -1.334321         2.773805
 C        -0.686147        -0.063864         1.993900
 H        -0.375433         0.475124        -0.522268
 H        -3.313582         1.083019         2.289144
 H        -3.535531         1.913206         0.820395
 H        -3.119405        -0.486303        -0.481129
 H        -4.326853        -1.866606         1.702032
 H        -2.925214        -2.418991         0.669340
 H        -2.712937        -2.595242         3.344501
 H        -0.742491        -1.217954         3.850707
 H        -0.412585         0.762938         2.664620
 H         0.226820        -0.079038         1.374726
