19
Iteration:  1999
 O        -1.042393         0.933773        -0.221118
 C        -1.646700         0.355732         0.874254
 C        -2.923556         0.984409         1.369934
 C        -2.903987        -0.434450         0.600015
 C        -3.243267        -1.650561         1.361421
 C        -2.355833        -2.010242         2.490868
 O        -1.085534        -2.495564         2.079617
 C        -1.107328        -1.274112         2.907264
 C        -0.724289        -0.106872         2.080183
 H        -0.120748         0.884908         0.159508
 H        -3.208249         0.958386         2.423272
 H        -3.273888         1.855871         0.891544
 H        -3.342356        -0.300089        -0.386139
 H        -4.295445        -1.654341         1.629217
 H        -3.092837        -2.428566         0.581527
 H        -2.932664        -2.635049         3.258864
 H        -0.985069        -1.474443         3.947472
 H        -0.731495         0.809662         2.671307
 H         0.289406        -0.302024         1.688345
