19
Iteration:  3597charge 0 multiplicity 1
 O        -1.012325         1.113037        -0.109665
 C        -1.687599         0.343531         0.884724
 C        -2.917046         0.792103         1.478733
 C        -2.873816        -0.443236         0.527293
 C        -3.192368        -1.729536         1.230858
 C        -2.354822        -1.972672         2.440622
 O        -1.121516        -2.573049         2.392576
 C        -1.220614        -1.186473         2.760428
 C        -0.666403        -0.116651         1.841989
 H        -0.377745         1.739963         0.297654
 H        -2.935623         0.574756         2.584891
 H        -3.383656         1.678576         1.012473
 H        -3.503671        -0.385015        -0.292298
 H        -4.262474        -1.605902         1.282409
 H        -2.930072        -2.628945         0.620581
 H        -2.917373        -2.376960         3.305070
 H        -0.909899        -0.873169         3.771026
 H        -0.424168         0.740005         2.445804
 H         0.137077        -0.657368         1.288377
