19
Iteration:  2798
 O        -1.013216         1.095060        -0.178573
 C        -1.599117         0.314056         0.861308
 C        -2.907101         0.890486         1.403930
 C        -2.982074        -0.393933         0.628703
 C        -3.266325        -1.746767         1.247123
 C        -2.345291        -1.998023         2.487128
 O        -1.118539        -2.536092         2.217783
 C        -1.183587        -1.229188         2.816666
 C        -0.627742        -0.075825         2.072281
 H        -0.413572         0.517064        -0.649183
 H        -3.038183         0.685734         2.431522
 H        -3.375739         1.803040         0.915578
 H        -3.443759        -0.337317        -0.322467
 H        -4.290349        -1.709890         1.618139
 H        -3.001752        -2.531343         0.477773
 H        -2.879010        -2.493707         3.245390
 H        -0.934472        -1.290250         3.905036
 H        -0.513752         0.875938         2.593876
 H         0.332818        -0.493292         1.768350
