19
Iteration:  3445charge 0 multiplicity 1
 O        -0.940891         0.888837        -0.179372
 C        -1.700470         0.359786         0.985314
 C        -3.024803         0.989465         1.267225
 C        -2.932098        -0.380547         0.594611
 C        -3.278526        -1.604174         1.374869
 C        -2.403627        -2.014269         2.511396
 O        -0.945031        -2.586635         2.129462
 C        -1.080530        -1.371534         2.826310
 C        -0.779757        -0.054930         2.065069
 H        -0.822907         1.829145        -0.035975
 H        -3.429074         1.168167         2.291378
 H        -3.250431         1.765819         0.492287
 H        -2.843679        -0.370592        -0.440938
 H        -4.340876        -1.503361         1.665708
 H        -3.448847        -2.324179         0.660389
 H        -2.707595        -2.874841         3.048253
 H        -0.628961        -1.265865         3.874381
 H        -0.808203         0.639506         2.903588
 H         0.259294         0.095714         1.656762
