19
Iteration:   985
 O        -1.119908         1.193436        -0.300248
 C        -1.640489         0.345844         0.811638
 C        -3.040987         0.845894         1.380785
 C        -2.841946        -0.425744         0.479545
 C        -3.018911        -1.779294         1.153511
 C        -2.391008        -2.075330         2.505110
 O        -0.977970        -2.520431         2.580041
 C        -1.309847        -1.156724         3.002061
 C        -0.718602        -0.223113         1.903276
 H        -0.473292         1.709542         0.197678
 H        -3.268044         0.555843         2.396931
 H        -3.350095         1.804386         0.989424
 H        -3.186639        -0.448852        -0.564796
 H        -4.085071        -1.769714         1.209064
 H        -2.670941        -2.476742         0.358334
 H        -3.069381        -2.533791         3.263619
 H        -1.322103        -0.724993         4.127891
 H        -0.115261         0.657606         2.177693
 H         0.047706        -0.825411         1.360302
