19
Iteration:  3493
 O        -0.933461         0.910488        -0.137063
 C        -1.586620         0.368689         0.869527
 C        -2.962750         0.936372         1.412401
 C        -2.843506        -0.410548         0.663282
 C        -3.256994        -1.769522         1.321471
 C        -2.442975        -2.086004         2.467619
 O        -1.017584        -2.426926         2.126961
 C        -1.258848        -1.245048         2.823517
 C        -0.713006        -0.107408         2.002261
 H        -1.282639         1.816103        -0.356261
 H        -2.964909         1.091836         2.456396
 H        -3.395973         1.765077         0.883904
 H        -3.536608        -0.229316        -0.249311
 H        -4.290280        -1.824866         1.263678
 H        -3.220588        -2.426243         0.457345
 H        -2.640935        -2.416159         3.491359
 H        -0.995606        -1.223772         3.889258
 H        -0.596899         0.844905         2.643321
 H         0.326853        -0.289552         1.775406
