19
Iteration:  1314
 O        -0.824351         0.758521        -0.085879
 C        -1.696078         0.371274         0.940828
 C        -3.072926         0.901506         1.113901
 C        -2.823586        -0.471397         0.638271
 C        -3.239144        -1.804743         1.415813
 C        -2.286899        -2.047174         2.499664
 O        -0.975429        -2.311322         1.964387
 C        -1.220381        -1.206724         2.902675
 C        -0.900668         0.071977         2.226610
 H        -1.429015         1.140669        -0.776904
 H        -3.464204         0.952475         2.114982
 H        -3.484269         1.743922         0.492313
 H        -2.826862        -0.604590        -0.439203
 H        -4.173943        -1.591581         1.795828
 H        -3.153849        -2.538354         0.605399
 H        -2.757950        -2.565645         3.273584
 H        -0.897748        -1.238909         4.005886
 H        -0.913392         0.990408         2.887610
 H         0.187663        -0.130709         1.946462
