19
Iteration:  3257
 O        -0.782381         0.969889        -0.057876
 C        -1.657732         0.378351         1.002803
 C        -3.072472         0.864811         1.132880
 C        -2.795809        -0.514402         0.696032
 C        -3.423916        -1.582273         1.572717
 C        -2.275486        -2.052971         2.489728
 O        -1.102738        -2.477092         1.833258
 C        -1.087281        -1.315544         2.748757
 C        -0.800534         0.027728         2.213317
 H        -1.313156         0.938249        -0.900418
 H        -3.471795         1.156999         2.171715
 H        -3.332214         1.395923         0.241052
 H        -2.893626        -0.900606        -0.331847
 H        -4.358834        -1.152869         2.003804
 H        -3.724284        -2.404104         1.025883
 H        -2.506079        -2.741047         3.301197
 H        -0.795605        -1.577453         3.816462
 H        -0.952613         0.753852         3.042709
 H         0.282443         0.072443         1.760607
