19
Iteration:   829
 O        -0.891195         0.762521        -0.145407
 C        -1.737169         0.351973         0.952964
 C        -3.056996         1.004376         1.074826
 C        -2.874668        -0.493201         0.613145
 C        -3.329339        -1.820239         1.384275
 C        -2.307607        -2.037934         2.555655
 O        -0.953511        -2.455131         2.048331
 C        -1.021688        -1.209998         2.816381
 C        -0.928662         0.157877         2.229988
 H        -0.101148         1.224215         0.249787
 H        -3.511999         1.151789         2.043419
 H        -3.342673         1.763637         0.296712
 H        -3.046898        -0.543301        -0.479263
 H        -4.363274        -1.650566         1.564216
 H        -3.295715        -2.699483         0.708888
 H        -2.677325        -2.572919         3.464647
 H        -0.422456        -1.199901         3.879127
 H        -1.396193         0.817550         3.009573
 H         0.153236         0.439896         2.098342
