19
Iteration:  3223charge 0 multiplicity 1
 O        -0.835920         0.992366        -0.031688
 C        -1.685479         0.360881         0.935550
 C        -3.023084         1.021221         1.133368
 C        -2.921648        -0.455469         0.572430
 C        -3.310070        -1.577004         1.534552
 C        -2.280790        -2.156979         2.531860
 O        -1.097515        -2.586650         1.947640
 C        -0.993894        -1.325954         2.814726
 C        -0.888869        -0.004858         2.155752
 H        -0.951932         0.563822        -0.897010
 H        -3.404188         1.363387         2.141906
 H        -3.257468         1.757334         0.342543
 H        -3.143613        -0.589368        -0.533358
 H        -4.201929        -1.216989         2.102272
 H        -3.636796        -2.355016         0.927236
 H        -2.505904        -2.844170         3.350857
 H        -0.491718        -1.488072         3.803948
 H        -0.989951         0.744424         2.965332
 H         0.172722         0.319345         1.817168
