19
Iteration:  4890
 O        -1.014809         0.950221        -0.204101
 C        -1.608366         0.338102         0.976482
 C        -2.941368         0.904869         1.268909
 C        -2.902896        -0.457138         0.612903
 C        -3.300688        -1.675372         1.398110
 C        -2.337908        -2.095246         2.412942
 O        -1.006261        -2.513811         2.077737
 C        -1.143599        -1.298166         2.819424
 C        -0.733968         0.026503         2.141295
 H        -1.146318         1.907826        -0.024291
 H        -3.180086         0.889508         2.412640
 H        -3.208302         1.842606         0.829495
 H        -3.025890        -0.380297        -0.437010
 H        -4.248720        -1.250818         1.782326
 H        -3.602550        -2.621287         0.953911
 H        -2.853678        -2.630243         3.172252
 H        -0.870084        -1.310005         3.926776
 H        -0.820451         0.894921         2.833929
 H         0.327204        -0.165211         1.816571
