19
Iteration:  1114
 O        -1.063060         1.127147        -0.137971
 C        -1.668402         0.339116         0.832650
 C        -3.113195         0.669368         1.382435
 C        -2.913960        -0.429858         0.398328
 C        -2.963998        -1.777737         1.076663
 C        -2.383108        -1.864906         2.589305
 O        -1.117167        -2.507434         2.597197
 C        -1.182509        -1.088320         2.888017
 C        -0.616434        -0.240143         1.794592
 H        -0.698770         1.927376         0.302045
 H        -3.324386         0.447796         2.391315
 H        -3.579828         1.677531         1.351080
 H        -3.377511        -0.410436        -0.634482
 H        -4.053674        -2.050951         1.157991
 H        -2.565476        -2.611429         0.401357
 H        -3.099996        -2.012500         3.434836
 H        -0.927191        -0.903368         4.008957
 H        -0.146947         0.666002         2.290834
 H         0.155672        -0.841701         1.228237
