19
Iteration:  4229charge 0 multiplicity 1
 O        -0.933826         1.006935        -0.116728
 C        -1.629850         0.315588         0.949316
 C        -3.085579         0.952802         1.312228
 C        -2.933988        -0.393731         0.643167
 C        -3.307977        -1.691984         1.273838
 C        -2.344331        -2.093180         2.400542
 O        -0.921428        -2.505611         2.260808
 C        -1.213927        -1.261966         2.869190
 C        -0.664839        -0.139944         1.920764
 H        -1.059702         1.934969        -0.294431
 H        -3.356127         1.040897         2.354444
 H        -3.319660         1.811340         0.690541
 H        -3.247280        -0.366433        -0.388302
 H        -4.283719        -1.613568         1.825597
 H        -3.554468        -2.552648         0.650304
 H        -2.770210        -2.333586         3.391100
 H        -1.039622        -1.124083         3.959014
 H        -0.250533         0.719162         2.476213
 H         0.142980        -0.702571         1.419608
