19
Iteration:   956
 O        -1.083528         1.095098        -0.159056
 C        -1.683610         0.454497         0.937713
 C        -3.086022         0.896815         1.172212
 C        -2.801100        -0.511716         0.517607
 C        -3.137280        -1.832991         1.237916
 C        -2.338668        -2.014298         2.453208
 O        -1.070357        -2.587789         2.539734
 C        -1.137316        -1.220636         2.883295
 C        -0.659603        -0.083968         1.922778
 H        -0.829701         1.951208         0.187587
 H        -3.396489         0.799468         2.224841
 H        -3.536973         1.706742         0.472134
 H        -3.045153        -0.711078        -0.552813
 H        -4.214540        -1.636973         1.510578
 H        -3.052733        -2.510254         0.390797
 H        -2.920283        -2.356503         3.340983
 H        -1.067742        -0.878762         3.840405
 H        -0.153615         0.758640         2.530229
 H         0.204741        -0.405393         1.295009
