19
Iteration:   760
 O        -0.879994         0.859975        -0.064030
 C        -1.726488         0.277287         0.942210
 C        -3.169023         0.974586         0.837125
 C        -2.967644        -0.512948         0.591211
 C        -3.399311        -1.610728         1.552998
 C        -2.161186        -2.159435         2.428219
 O        -0.792051        -2.459909         2.037168
 C        -1.201406        -1.219859         2.899971
 C        -0.849265         0.119097         2.285412
 H         0.079525         0.879583         0.212003
 H        -3.843494         1.348354         1.673529
 H        -3.204075         1.609668        -0.061962
 H        -2.935475        -0.771785        -0.459085
 H        -4.148079        -1.410770         2.333136
 H        -3.784380        -2.383562         0.914516
 H        -2.512835        -2.758568         3.258984
 H        -0.918767        -1.415379         4.013632
 H        -1.091623         0.955164         2.883673
 H         0.214077         0.218253         2.025979
