19
Iteration:   713
 O        -0.848660         0.848113        -0.117577
 C        -1.607896         0.337547         0.981934
 C        -3.062207         0.875432         0.965902
 C        -2.808939        -0.558000         0.587745
 C        -3.335866        -1.732362         1.483685
 C        -2.215596        -1.997273         2.504866
 O        -1.011193        -2.372556         1.949450
 C        -1.042069        -1.212389         2.888245
 C        -1.047419         0.161356         2.374433
 H        -0.974076         0.208965        -0.851729
 H        -3.695448         0.959895         1.812609
 H        -3.230028         1.619412         0.168368
 H        -3.043608        -0.682388        -0.511483
 H        -4.358147        -1.592626         1.980422
 H        -3.262188        -2.742360         1.029541
 H        -2.464048        -2.791252         3.269218
 H        -0.667163        -1.335350         3.836481
 H        -1.591550         0.731157         3.105785
 H        -0.099976         0.622030         2.222517
