19
Iteration:  3180
 O        -0.986820         0.782396        -0.185705
 C        -1.660773         0.385759         1.030042
 C        -2.999771         1.087525         1.258451
 C        -2.881619        -0.339539         0.687300
 C        -3.369238        -1.640579         1.362174
 C        -2.268022        -2.199092         2.431182
 O        -0.998279        -2.441747         1.923617
 C        -1.153931        -1.266234         2.935818
 C        -0.808467         0.020733         2.176838
 H        -0.236438         0.200314        -0.274480
 H        -3.227771         1.106706         2.303183
 H        -3.147818         1.843186         0.469034
 H        -2.970304        -0.411371        -0.425927
 H        -4.249060        -1.340871         1.978336
 H        -3.625865        -2.448528         0.771231
 H        -2.699987        -3.002957         3.091138
 H        -0.525202        -1.657171         3.751301
 H        -0.755927         0.911548         2.851127
 H         0.300342        -0.138471         1.906304
