19
Iteration:  4607
 O        -1.111558         0.963731        -0.231292
 C        -1.659003         0.359639         0.974156
 C        -3.004664         0.966617         1.314961
 C        -2.802914        -0.386414         0.574058
 C        -3.145116        -1.703800         1.300792
 C        -2.424300        -2.010484         2.508129
 O        -1.065977        -2.626581         2.203357
 C        -1.144696        -1.355939         2.819413
 C        -0.671084         0.039121         2.102733
 H        -0.789013         1.894828        -0.121788
 H        -3.272157         0.896600         2.428962
 H        -3.059960         1.882333         0.750428
 H        -2.943470        -0.424928        -0.530460
 H        -4.296473        -1.622693         1.386848
 H        -3.047563        -2.567948         0.617950
 H        -2.883880        -2.518628         3.356898
 H        -0.922764        -1.340597         3.880445
 H        -0.510536         0.711418         2.912497
 H         0.186179        -0.126191         1.449291
