19
Iteration:  2186
 O        -0.851211         0.878726        -0.130290
 C        -1.676128         0.444230         0.944601
 C        -3.070189         1.123487         1.144332
 C        -2.974152        -0.348824         0.658272
 C        -3.306118        -1.579299         1.525540
 C        -2.261870        -2.139813         2.548501
 O        -1.057437        -2.592806         1.868749
 C        -1.028050        -1.363093         2.882326
 C        -0.824661        -0.016182         2.155129
 H        -0.687000         0.093043        -0.694802
 H        -3.249800         1.243006         2.193304
 H        -3.333506         1.874435         0.418120
 H        -3.227723        -0.451162        -0.406324
 H        -4.261447        -1.427318         2.128579
 H        -3.551386        -2.481746         0.877968
 H        -2.550287        -2.968236         3.339329
 H        -0.493064        -1.529222         3.808882
 H        -1.253239         0.524405         2.985851
 H         0.248090         0.196768         2.036965
