19
Iteration:  4002charge 0 multiplicity 1
 O        -0.987039         0.870295        -0.239271
 C        -1.688427         0.436948         0.977643
 C        -3.038792         0.991583         1.233576
 C        -2.860889        -0.422058         0.673220
 C        -3.324517        -1.570407         1.404021
 C        -2.370644        -2.131826         2.494833
 O        -0.850662        -2.487292         2.033178
 C        -1.140629        -1.425735         2.883243
 C        -0.850021        -0.021774         2.133217
 H        -0.127485         1.234273        -0.022084
 H        -3.426629         0.980656         2.196037
 H        -3.260588         1.710112         0.451167
 H        -2.865075        -0.405168        -0.489303
 H        -4.098112        -1.099720         1.996950
 H        -3.740995        -2.173110         0.637602
 H        -2.722701        -2.816632         3.234630
 H        -0.901390        -1.536147         3.943933
 H        -0.911986         0.805010         2.769463
 H         0.151315        -0.023171         1.791776
