19
Iteration:  2229charge 0 multiplicity 1
 O        -0.955919         0.929519        -0.141711
 C        -1.623567         0.386822         0.975022
 C        -3.004903         0.942178         1.128205
 C        -2.811524        -0.484137         0.660875
 C        -3.465955        -1.552744         1.648324
 C        -2.352215        -2.121504         2.472892
 O        -1.085788        -2.402984         1.820078
 C        -1.076725        -1.354644         2.780996
 C        -0.690462        -0.059138         2.213210
 H         0.025588         0.906313         0.002852
 H        -3.534819         0.901313         2.080178
 H        -3.324106         1.643654         0.415482
 H        -2.837479        -0.746806        -0.379383
 H        -4.287851        -1.036865         2.241190
 H        -3.959489        -2.377232         1.101067
 H        -2.707051        -2.765147         3.348149
 H        -0.659116        -1.691860         3.719310
 H        -0.762510         0.761680         2.910944
 H         0.419497        -0.006896         1.953823
