19
Iteration:   277charge 0 multiplicity 1
 O        -1.087564         1.206449        -0.124918
 C        -1.704136         0.335752         0.863262
 C        -3.076706         0.700600         1.217628
 C        -2.919166        -0.554024         0.398813
 C        -3.044746        -1.897932         1.176004
 C        -2.376648        -1.829129         2.544760
 O        -1.077616        -2.491769         2.601759
 C        -1.191507        -1.054431         2.899393
 C        -0.623616        -0.187262         1.867668
 H        -0.371044         1.527733         0.403958
 H        -3.632678         0.779231         2.266615
 H        -3.275401         1.556685         0.582540
 H        -2.952919        -0.654332        -0.721568
 H        -4.061167        -2.448098         1.260986
 H        -2.294210        -2.514743         0.646206
 H        -3.042649        -1.934989         3.417302
 H        -1.042397        -0.818625         3.986481
 H        -0.252365         0.727813         2.355253
 H         0.198952        -0.720337         1.388790
