19
Iteration:  3225
 O        -0.833503         0.996330        -0.029205
 C        -1.682193         0.377031         0.927527
 C        -3.013369         1.024787         1.124038
 C        -2.915573        -0.450394         0.549085
 C        -3.308093        -1.587925         1.552293
 C        -2.283119        -2.176803         2.545044
 O        -1.118438        -2.561634         1.957267
 C        -0.984614        -1.338819         2.794129
 C        -0.891527         0.006056         2.162774
 H        -0.957911         0.628464        -0.890758
 H        -3.365253         1.232527         2.220473
 H        -3.208976         1.694477         0.309248
 H        -3.223189        -0.673462        -0.500720
 H        -4.200910        -1.207397         2.093479
 H        -3.636429        -2.402199         0.956291
 H        -2.469939        -2.884841         3.329290
 H        -0.526697        -1.591068         3.819449
 H        -0.969239         0.763517         2.981650
 H         0.139472         0.328865         1.788465
