19
Iteration:    67charge 0 multiplicity 1
 O        -0.796142         0.741570        -0.106118
 C        -1.670462         0.398890         0.972132
 C        -3.046726         0.870518         0.869425
 C        -2.840788        -0.631636         0.542926
 C        -3.211552        -1.818840         1.454927
 C        -2.245085        -2.079436         2.521880
 O        -0.927544        -2.412898         2.068887
 C        -1.165371        -1.074442         2.900618
 C        -1.090234         0.326731         2.371165
 H        -1.346710         1.263406        -0.740341
 H        -3.615967         1.090694         1.794133
 H        -3.306880         1.339266        -0.038224
 H        -3.012928        -0.799706        -0.445598
 H        -4.251713        -1.878472         1.814378
 H        -3.074777        -2.699278         0.840406
 H        -2.650381        -2.697760         3.313448
 H        -0.728816        -1.282210         3.865970
 H        -1.691709         0.948601         2.996594
 H        -0.077649         0.644637         2.415173
