19
Iteration:   789
 O        -0.914798         0.801836        -0.153230
 C        -1.677011         0.333368         0.961673
 C        -3.111013         0.901810         1.031486
 C        -2.739346        -0.574017         0.519584
 C        -3.368471        -1.624280         1.498068
 C        -2.232019        -2.132395         2.572885
 O        -0.944655        -2.261305         1.946169
 C        -1.154608        -1.258015         2.932378
 C        -0.964570         0.060475         2.271525
 H        -0.004131         0.992238         0.067841
 H        -3.676801         0.978208         1.919008
 H        -3.406986         1.658426         0.272820
 H        -2.703542        -0.713362        -0.579113
 H        -4.290290        -1.314187         2.064408
 H        -3.650313        -2.504069         0.859506
 H        -2.492611        -2.859757         3.387400
 H        -0.720361        -1.425283         3.823225
 H        -1.012807         0.978237         2.910890
 H         0.079158         0.169970         1.944365
