19
Iteration:   694charge 0 multiplicity 1
 O        -0.834065         0.748294         0.012959
 C        -1.676784         0.287276         0.997325
 C        -3.115092         0.856911         0.972903
 C        -2.880105        -0.589291         0.542314
 C        -3.323144        -1.752223         1.450410
 C        -2.341589        -2.062962         2.559732
 O        -0.913028        -2.218823         1.914392
 C        -1.100385        -1.227531         2.843260
 C        -0.884617         0.235254         2.316710
 H        -1.087250         0.592055        -0.884001
 H        -3.410901         1.197959         1.951498
 H        -3.428263         1.559088         0.106429
 H        -2.801950        -1.020648        -0.457515
 H        -4.289030        -1.406352         1.764789
 H        -3.532725        -2.575946         0.800931
 H        -2.656614        -2.763886         3.318492
 H        -0.588871        -1.319680         3.868402
 H        -1.177560         0.967090         3.042610
 H         0.200809         0.423866         2.275659
