19
Iteration:  2503charge 0 multiplicity 1
 O        -0.956591         0.925751        -0.204343
 C        -1.650552         0.412262         0.942774
 C        -2.932294         1.042007         1.342450
 C        -2.977522        -0.329489         0.620772
 C        -3.194218        -1.668988         1.315035
 C        -2.302984        -2.052043         2.470304
 O        -1.043102        -2.552724         2.180912
 C        -1.110085        -1.344912         2.851960
 C        -0.802910        -0.071543         2.082805
 H        -1.285703         0.467621        -1.021903
 H        -3.235749         1.190406         2.404086
 H        -3.491828         1.822091         0.759420
 H        -3.478585        -0.353795        -0.393281
 H        -4.252138        -1.893805         1.544901
 H        -2.932787        -2.447158         0.604070
 H        -2.887272        -2.628740         3.224509
 H        -0.769323        -1.436689         3.922996
 H        -0.907289         0.681973         2.953374
 H         0.293599        -0.123255         1.681788
