19
Iteration:  3381charge 0 multiplicity 1
 O        -0.990652         0.837978        -0.081106
 C        -1.691618         0.386640         1.065256
 C        -3.047749         0.916738         1.124126
 C        -2.843900        -0.460121         0.535951
 C        -3.381410        -1.599088         1.429680
 C        -2.318919        -2.031032         2.555759
 O        -1.018114        -2.434306         1.912989
 C        -1.067672        -1.324390         2.780177
 C        -0.713276        -0.023590         2.192202
 H        -0.247227         1.417322         0.178355
 H        -3.404808         1.054530         2.160202
 H        -3.281853         1.801932         0.417799
 H        -2.679710        -0.822755        -0.422459
 H        -4.189480        -1.255162         2.068034
 H        -3.809625        -2.545254         1.049649
 H        -2.784814        -2.826035         3.171000
 H        -0.669869        -1.348138         3.876242
 H        -0.971807         0.805712         2.935905
 H         0.355971        -0.034567         1.862062
