19
Iteration:   316
 O        -1.067435         1.124270        -0.284376
 C        -1.671182         0.470398         0.911672
 C        -3.115321         0.754362         1.336856
 C        -2.805284        -0.539320         0.445046
 C        -2.987416        -1.905425         1.083181
 C        -2.367583        -1.897826         2.469598
 O        -1.108036        -2.565134         2.745707
 C        -1.255521        -1.081154         2.901481
 C        -0.631950        -0.137465         1.890102
 H        -1.060987         2.105095        -0.428385
 H        -3.206687         0.652865         2.363118
 H        -3.712872         1.585029         0.891970
 H        -3.056780        -0.306023        -0.556818
 H        -4.021708        -2.150420         1.152637
 H        -2.435896        -2.670748         0.532333
 H        -3.139665        -2.225211         3.216395
 H        -1.221175        -0.763552         3.952412
 H        -0.108284         0.663563         2.490859
 H         0.182898        -0.708621         1.379251
