19
Iteration:  2800
 O        -1.021373         1.080600        -0.190413
 C        -1.577130         0.308967         0.865370
 C        -2.897240         0.886181         1.416971
 C        -2.986584        -0.389177         0.624319
 C        -3.239912        -1.738925         1.263169
 C        -2.346623        -1.994525         2.480475
 O        -1.123790        -2.543994         2.205702
 C        -1.191590        -1.223226         2.827637
 C        -0.626126        -0.057350         2.091963
 H        -0.459964         0.489040        -0.666024
 H        -3.107818         0.684132         2.466693
 H        -3.376517         1.732277         0.980316
 H        -3.420166        -0.374105        -0.363792
 H        -4.406245        -1.714119         1.591882
 H        -3.004804        -2.456062         0.407610
 H        -2.939544        -2.573839         3.208208
 H        -0.976973        -1.293398         3.879362
 H        -0.512674         0.947122         2.523363
 H         0.311252        -0.431143         1.707356
