19
Iteration:  1756charge 0 multiplicity 1
 O        -1.147987         1.223507        -0.192642
 C        -1.622523         0.397001         0.866072
 C        -2.977873         0.778590         1.379204
 C        -2.851097        -0.404483         0.492840
 C        -3.150178        -1.690444         1.169688
 C        -2.418365        -1.893910         2.547660
 O        -1.201879        -2.694124         2.525766
 C        -1.097730        -1.233987         2.867539
 C        -0.565298        -0.222907         1.853173
 H        -0.313980         1.712940         0.036679
 H        -3.616186         0.538850         2.297611
 H        -3.420360         1.687127         0.901773
 H        -3.042205        -0.200210        -0.586732
 H        -4.221975        -1.930481         1.152847
 H        -2.765535        -2.491227         0.506396
 H        -2.993321        -2.249595         3.360334
 H        -0.657797        -1.085189         3.862422
 H        -0.136314         0.608100         2.470712
 H         0.353134        -0.725972         1.379525
