19
Iteration:   984
 O        -1.117803         1.199020        -0.306273
 C        -1.638283         0.338688         0.820342
 C        -3.051025         0.846767         1.377146
 C        -2.842001        -0.416685         0.469199
 C        -3.026643        -1.776907         1.151590
 C        -2.390005        -2.074505         2.523512
 O        -0.968124        -2.526933         2.578043
 C        -1.318777        -1.170415         3.002606
 C        -0.713400        -0.211956         1.899958
 H        -0.484296         1.711281         0.185418
 H        -3.290504         0.572834         2.398039
 H        -3.328385         1.760686         0.968057
 H        -3.147713        -0.447790        -0.575326
 H        -4.086846        -1.743806         1.225847
 H        -2.690821        -2.459212         0.343050
 H        -3.027752        -2.533285         3.299302
 H        -1.334609        -0.731896         4.129094
 H        -0.113348         0.627339         2.186380
 H         0.040045        -0.834889         1.383194
