19
Iteration:  1076
 O        -1.141391         1.332466        -0.171157
 C        -1.662668         0.420482         0.857865
 C        -3.023364         0.804929         1.285096
 C        -2.891255        -0.439486         0.554917
 C        -2.989996        -1.886355         1.119982
 C        -2.424984        -2.096869         2.580476
 O        -1.085024        -2.537499         2.749041
 C        -1.295779        -1.096007         2.773296
 C        -0.527199        -0.341388         1.708609
 H        -0.669669         2.111690         0.247559
 H        -3.252633         0.652600         2.407006
 H        -3.356039         1.620493         0.644880
 H        -3.154272        -0.367999        -0.494890
 H        -4.104103        -1.939695         1.136308
 H        -2.529588        -2.670392         0.552785
 H        -3.139013        -2.237394         3.421509
 H        -1.228789        -0.612384         3.691786
 H         0.095908         0.411539         2.312051
 H         0.139153        -0.975760         1.103801
