19
Iteration:  1337
 O        -0.887970         0.781052        -0.113065
 C        -1.644522         0.340298         0.957500
 C        -2.992655         0.872173         1.156367
 C        -2.869060        -0.479505         0.564698
 C        -3.359719        -1.778687         1.352348
 C        -2.350870        -2.122315         2.485645
 O        -0.973873        -2.351902         2.038713
 C        -1.077302        -1.279474         2.872679
 C        -0.828370         0.293722         2.317747
 H        -1.309767         0.478029        -0.904375
 H        -3.541022         1.082151         2.062191
 H        -3.210373         1.622553         0.336828
 H        -3.106183        -0.451549        -0.520259
 H        -4.276379        -1.573182         1.776972
 H        -3.361567        -2.484770         0.525256
 H        -2.766201        -2.811545         3.163396
 H        -0.605307        -1.410221         3.902875
 H        -1.382689         0.977187         2.981459
 H         0.234715         0.640272         2.200097
