19
Iteration:  2821charge 0 multiplicity 1
 O        -1.081849         0.937777        -0.233835
 C        -1.615671         0.393056         0.960405
 C        -2.932994         0.919758         1.466454
 C        -2.811131        -0.359578         0.634438
 C        -3.256945        -1.705430         1.175125
 C        -2.379002        -2.044588         2.488248
 O        -1.084593        -2.485684         2.171341
 C        -1.219490        -1.261450         2.855654
 C        -0.663512        -0.033383         2.060081
 H        -0.926473         0.127612        -0.817427
 H        -2.891472         0.727808         2.524039
 H        -3.184449         1.859497         1.032753
 H        -3.109498        -0.138797        -0.371534
 H        -4.308821        -1.598996         1.446561
 H        -2.890966        -2.553720         0.554903
 H        -2.925412        -2.573116         3.248998
 H        -0.832852        -1.300499         3.878039
 H        -0.651194         0.743212         2.834946
 H         0.326791        -0.329097         1.798294
