19
Iteration:  3238
 O        -0.795685         1.034663        -0.033594
 C        -1.653681         0.409591         0.896699
 C        -2.998490         0.949823         1.043081
 C        -2.871816        -0.483996         0.598559
 C        -3.335954        -1.641634         1.628913
 C        -2.350487        -2.130920         2.634424
 O        -1.077745        -2.483687         1.877863
 C        -1.074064        -1.429027         2.745082
 C        -0.826299         0.055257         2.186607
 H        -1.123142         0.773030        -0.944549
 H        -3.480778         0.945362         2.086620
 H        -3.415459         1.872486         0.608765
 H        -3.209362        -0.602965        -0.433648
 H        -4.217862        -1.319733         2.203567
 H        -3.693177        -2.545746         1.044215
 H        -2.879405        -2.799697         3.303454
 H        -0.363721        -1.534887         3.657773
 H        -1.144251         0.748321         2.998855
 H         0.246788        -0.005431         1.976765
