19
Iteration:  3544
 O        -1.095723         1.107268        -0.148966
 C        -1.622988         0.408286         1.007449
 C        -3.093345         0.943073         1.258874
 C        -2.813940        -0.392537         0.574010
 C        -3.123024        -1.660798         1.309744
 C        -2.378699        -1.951987         2.489630
 O        -1.076343        -2.684910         2.344016
 C        -1.143165        -1.351762         2.768733
 C        -0.656903        -0.190046         1.908501
 H        -0.812346         1.983377         0.201783
 H        -3.573243         1.000521         2.287553
 H        -3.465114         1.633610         0.490464
 H        -2.735090        -0.433586        -0.491727
 H        -4.246820        -1.454935         1.549509
 H        -3.274787        -2.607008         0.754220
 H        -2.895041        -2.284018         3.405299
 H        -0.794902        -1.206173         3.866113
 H        -0.300970         0.622735         2.514994
 H         0.236988        -0.577516         1.317705
