19
Iteration:  1671
 O        -0.994514         1.027102        -0.256384
 C        -1.630654         0.380717         0.934858
 C        -3.020278         0.848935         1.416126
 C        -2.878070        -0.361263         0.538314
 C        -3.065109        -1.700869         1.157759
 C        -2.413263        -2.023000         2.494357
 O        -1.125810        -2.574341         2.450505
 C        -1.152904        -1.269071         2.850285
 C        -0.645486        -0.062679         1.960522
 H        -1.759348         1.425652        -0.713110
 H        -3.149147         0.837781         2.559938
 H        -3.296890         1.829158         1.044148
 H        -3.259795        -0.410715        -0.509214
 H        -4.146835        -1.781238         1.373911
 H        -2.746556        -2.474862         0.346985
 H        -3.207801        -2.549725         3.122381
 H        -1.213549        -1.009156         3.899340
 H        -0.525644         0.725244         2.760007
 H         0.309518        -0.499521         1.605849
