19
Iteration:  1174
 O        -1.009250         1.047482        -0.315836
 C        -1.669815         0.404989         0.824980
 C        -3.030941         0.922533         1.336385
 C        -2.907921        -0.403167         0.630232
 C        -3.085442        -1.776849         1.153777
 C        -2.373141        -2.135791         2.496435
 O        -0.937412        -2.542732         2.561914
 C        -1.313917        -1.199713         2.918188
 C        -0.727472        -0.110652         1.923986
 H        -0.832855         1.988665        -0.018063
 H        -3.106919         0.736204         2.443201
 H        -3.588545         1.638487         0.734628
 H        -3.021940        -0.456178        -0.437968
 H        -4.127098        -1.983472         1.429901
 H        -2.797684        -2.279851         0.236596
 H        -3.025581        -2.579636         3.240061
 H        -1.344461        -0.888861         3.954852
 H        -0.483535         0.743698         2.491538
 H         0.185189        -0.323972         1.403905
