19
Iteration:  1891
 O        -1.060707         1.185584        -0.197238
 C        -1.660640         0.375592         0.898594
 C        -2.939141         0.856415         1.350138
 C        -2.817592        -0.474149         0.523282
 C        -3.247841        -1.683645         1.327733
 C        -2.445933        -1.937363         2.552516
 O        -1.158588        -2.626931         2.355249
 C        -1.111155        -1.292607         2.759264
 C        -0.554774        -0.158354         1.893673
 H        -0.621741         1.874580         0.394262
 H        -3.303207         0.439007         2.290339
 H        -3.455047         1.631253         0.959171
 H        -3.016670        -0.456811        -0.508104
 H        -4.317960        -1.606856         1.629435
 H        -3.238250        -2.622238         0.662067
 H        -3.049367        -2.414295         3.380490
 H        -0.954533        -1.166263         3.834987
 H        -0.207790         0.724456         2.564804
 H         0.397679        -0.479149         1.416288
