19
Iteration:   248charge 0 multiplicity 1
 O        -1.129192         1.264803        -0.189639
 C        -1.667695         0.456282         0.785164
 C        -3.084696         0.791016         1.224730
 C        -2.733051        -0.548962         0.414079
 C        -3.069145        -1.835407         1.226911
 C        -2.348997        -2.144210         2.535829
 O        -1.004419        -2.519042         2.738023
 C        -1.344396        -1.086559         2.877578
 C        -0.665746        -0.121948         1.868233
 H        -0.256913         0.802639        -0.337968
 H        -3.317146         0.834568         2.278450
 H        -3.563955         1.550500         0.692356
 H        -2.878741        -0.490931        -0.761051
 H        -4.078809        -1.717431         1.533201
 H        -2.934092        -2.666557         0.511956
 H        -3.054079        -2.522180         3.258643
 H        -1.285968        -0.861120         3.919580
 H        -0.347526         0.727726         2.463887
 H         0.218569        -0.610160         1.308985
