19
Iteration:  4223
 O        -0.899325         1.015282        -0.156178
 C        -1.689632         0.334950         0.946482
 C        -3.027001         0.963526         1.336021
 C        -2.935601        -0.451145         0.618225
 C        -3.285720        -1.675499         1.350388
 C        -2.369214        -2.132515         2.350319
 O        -0.939948        -2.530111         2.261607
 C        -1.197206        -1.220496         2.841085
 C        -0.699202        -0.142113         1.984703
 H        -1.142287         1.945416        -0.182410
 H        -3.283010         1.073768         2.398558
 H        -3.410027         1.823136         0.732202
 H        -3.240540        -0.549321        -0.430873
 H        -4.212701        -1.513813         1.916381
 H        -3.416009        -2.471320         0.579551
 H        -2.856798        -2.383637         3.290094
 H        -1.085910        -1.107415         3.928974
 H        -0.250595         0.795351         2.416134
 H         0.180956        -0.412671         1.355733
