19
Iteration:  4406charge 0 multiplicity 1
 O        -1.239119         1.175543        -0.213310
 C        -1.608138         0.377382         0.917994
 C        -2.944793         0.809664         1.488815
 C        -2.791176        -0.395030         0.572789
 C        -3.065202        -1.737973         1.110826
 C        -2.444587        -1.934353         2.479449
 O        -1.193270        -2.647511         2.495132
 C        -1.196859        -1.221441         2.806859
 C        -0.527290        -0.201529         1.826131
 H        -0.875908         1.988973         0.155230
 H        -2.920217         0.818121         2.604777
 H        -3.317317         1.678696         1.015902
 H        -2.938076        -0.416671        -0.525117
 H        -4.173665        -1.769662         1.356148
 H        -2.863758        -2.565701         0.414028
 H        -3.175199        -2.209572         3.234527
 H        -0.717045        -1.022848         3.831442
 H        -0.026933         0.469235         2.529872
 H         0.252095        -0.689863         1.261091
