19
Iteration:  1841charge 0 multiplicity 1
 O        -1.035508         1.111111        -0.111155
 C        -1.693880         0.429280         0.905948
 C        -3.036421         0.960155         1.442339
 C        -2.920684        -0.318007         0.593208
 C        -3.169172        -1.826522         1.116668
 C        -2.417717        -2.013219         2.505057
 O        -1.070403        -2.617030         2.470214
 C        -1.189153        -1.208769         2.782643
 C        -0.585477        -0.204955         1.839975
 H        -0.479190         0.577091        -0.686574
 H        -2.928193         0.883728         2.545488
 H        -3.211818         1.934090         0.919145
 H        -3.258611        -0.030096        -0.476302
 H        -4.235418        -2.007578         1.334730
 H        -2.751329        -2.525347         0.436934
 H        -3.068542        -2.163726         3.349044
 H        -0.959134        -1.144496         3.863063
 H        -0.071938         0.604587         2.303583
 H         0.202886        -0.753377         1.265659
