19
Iteration:  3095charge 0 multiplicity 1
 O        -0.977009         1.080915        -0.124709
 C        -1.665965         0.394530         1.012476
 C        -3.037359         1.104621         1.010024
 C        -2.870143        -0.458208         0.592519
 C        -3.373249        -1.543827         1.560480
 C        -2.291457        -2.152073         2.478626
 O        -1.066383        -2.610305         2.018425
 C        -1.038247        -1.465997         2.830694
 C        -0.688566        -0.036295         2.251585
 H        -0.913205         0.394838        -0.834880
 H        -3.535275         1.174367         1.943343
 H        -3.423370         1.857209         0.325095
 H        -2.762277        -0.772350        -0.454815
 H        -4.313866        -1.168987         2.012326
 H        -3.683572        -2.427139         0.914572
 H        -2.513818        -2.786494         3.311411
 H        -0.566456        -1.644254         3.813389
 H        -0.761114         0.763301         3.004079
 H         0.153051         0.061559         1.646201
