19
Iteration:   791charge 0 multiplicity 1
 O        -0.905162         0.801316        -0.175129
 C        -1.672213         0.328239         0.972109
 C        -3.123201         0.902292         1.033594
 C        -2.720760        -0.560865         0.537559
 C        -3.365915        -1.633480         1.493787
 C        -2.248908        -2.133415         2.583163
 O        -0.941324        -2.279812         1.927817
 C        -1.173134        -1.243978         2.930441
 C        -0.956721         0.083679         2.265807
 H        -0.009414         0.970339         0.124522
 H        -3.692660         0.901151         1.999637
 H        -3.450518         1.660592         0.316344
 H        -2.700429        -0.751022        -0.536795
 H        -4.328305        -1.284333         2.006423
 H        -3.609197        -2.514858         0.894422
 H        -2.481668        -2.829286         3.412088
 H        -0.677604        -1.436194         3.831346
 H        -1.044669         0.924338         2.917656
 H         0.074554         0.198387         1.999712
