19
Iteration:  1177charge 0 multiplicity 1
 O        -0.998157         1.038989        -0.296202
 C        -1.666106         0.394108         0.802595
 C        -3.046363         0.896521         1.333015
 C        -2.929590        -0.388820         0.620834
 C        -3.075594        -1.763561         1.177565
 C        -2.382233        -2.132747         2.477256
 O        -0.922375        -2.510438         2.548248
 C        -1.302786        -1.196864         2.933635
 C        -0.752120        -0.142563         1.928490
 H        -0.836818         1.945673        -0.012019
 H        -3.059169         0.679358         2.354978
 H        -3.553966         1.691723         0.734386
 H        -3.094475        -0.350990        -0.477671
 H        -4.170265        -1.956778         1.341339
 H        -2.860503        -2.312732         0.283243
 H        -2.983008        -2.559072         3.290763
 H        -1.245260        -0.889540         3.919176
 H        -0.442357         0.750572         2.567517
 H         0.237439        -0.360587         1.508436
