19
Iteration:  1801charge 0 multiplicity 1
 O        -0.920213         1.106984        -0.191158
 C        -1.618639         0.359266         0.865143
 C        -2.974482         0.876969         1.510032
 C        -2.926874        -0.317320         0.547834
 C        -3.150519        -1.758700         1.113416
 C        -2.414762        -2.065034         2.535180
 O        -1.075536        -2.560025         2.464452
 C        -1.256734        -1.158311         2.881602
 C        -0.671418        -0.256668         1.829234
 H        -1.766893         1.481257        -0.578356
 H        -2.970977         0.834236         2.598626
 H        -3.555884         1.878933         1.225673
 H        -3.457813        -0.041893        -0.379578
 H        -4.178504        -2.091861         0.965444
 H        -2.658706        -2.449943         0.345150
 H        -2.974405        -2.268573         3.449912
 H        -1.060227        -0.914189         3.934349
 H        -0.008853         0.562626         2.249125
 H         0.133330        -0.813497         1.254663
