19
Iteration:  1501charge 0 multiplicity 1
 O        -0.808729         0.791954        -0.213011
 C        -1.692655         0.371585         0.941018
 C        -3.114718         1.001479         1.182651
 C        -2.881039        -0.416993         0.680235
 C        -3.277884        -1.657631         1.344272
 C        -2.277335        -2.171901         2.365372
 O        -0.886158        -2.418664         2.178189
 C        -1.234540        -1.237370         2.932680
 C        -0.836787         0.001669         2.197548
 H        -1.360352         1.329331        -0.848662
 H        -3.547799         1.163798         2.222533
 H        -3.493168         1.782312         0.574654
 H        -3.112783        -0.554737        -0.387502
 H        -4.315318        -1.582726         1.874613
 H        -3.364545        -2.348663         0.474799
 H        -2.782232        -2.899638         2.908449
 H        -0.936866        -1.299056         4.058174
 H        -1.039442         0.859575         2.918841
 H         0.270933        -0.026347         1.854250
