19
Iteration:  1966charge 0 multiplicity 1
 O        -1.045795         0.963298        -0.248182
 C        -1.691694         0.505756         0.904763
 C        -2.912985         1.027936         1.384915
 C        -2.883244        -0.358037         0.686323
 C        -3.277182        -1.703252         1.260796
 C        -2.363259        -2.099027         2.384446
 O        -1.060983        -2.637706         2.276239
 C        -1.130223        -1.306974         2.842686
 C        -0.653946        -0.026482         2.058257
 H        -0.671346         0.216881        -0.712075
 H        -3.086433         0.971148         2.474801
 H        -3.374549         1.767310         0.824282
 H        -3.176609        -0.211628        -0.309644
 H        -4.317528        -1.884810         1.499088
 H        -3.195995        -2.416904         0.412347
 H        -2.947484        -2.484554         3.281048
 H        -1.007834        -1.222792         3.920753
 H        -0.591989         0.755159         2.857255
 H         0.430979        -0.085296         1.853105
