19
Iteration:  3852
 O        -1.004312         1.038977        -0.155726
 C        -1.599355         0.438189         0.949925
 C        -3.052331         0.947744         1.325384
 C        -2.807026        -0.482210         0.552492
 C        -3.250699        -1.743093         1.311140
 C        -2.439242        -2.005514         2.560166
 O        -1.029061        -2.607640         2.221440
 C        -1.135047        -1.268929         2.698574
 C        -0.744336        -0.074168         2.011301
 H        -0.217788         1.521777         0.121920
 H        -3.419487         0.939493         2.302981
 H        -3.227804         1.936082         0.865972
 H        -3.358709        -0.476916        -0.439939
 H        -4.319832        -1.661380         1.490338
 H        -3.256191        -2.691738         0.778386
 H        -2.897630        -2.370660         3.491301
 H        -0.599557        -1.241025         3.629365
 H        -0.780121         0.637430         2.920878
 H         0.349484        -0.151418         1.690926
