19
Iteration:  1321charge 0 multiplicity 1
 O        -0.844363         0.761432        -0.120565
 C        -1.649693         0.357097         1.007613
 C        -3.058263         0.941761         1.128598
 C        -2.854082        -0.556603         0.625535
 C        -3.262840        -1.750907         1.366805
 C        -2.288502        -2.028715         2.472453
 O        -0.982713        -2.334924         1.974451
 C        -1.193094        -1.157759         2.872404
 C        -0.896094         0.106920         2.280598
 H        -1.488790         0.945090        -0.805353
 H        -3.240474         0.941693         2.209882
 H        -3.401417         1.677515         0.439132
 H        -2.888193        -0.697396        -0.446348
 H        -4.386339        -1.732449         1.641524
 H        -3.187358        -2.706170         0.821178
 H        -2.687954        -2.804904         3.231542
 H        -0.843306        -1.339800         3.873819
 H        -0.982953         0.914512         3.049493
 H         0.184245         0.131283         2.088360
