19
Iteration:  4031
 O        -0.923506         0.940473        -0.157667
 C        -1.673496         0.352352         0.946387
 C        -2.963090         0.924345         1.151127
 C        -2.943644        -0.459324         0.649195
 C        -3.380788        -1.656554         1.519239
 C        -2.254024        -2.199527         2.437231
 O        -1.035598        -2.441896         1.963242
 C        -1.144596        -1.243069         2.889541
 C        -0.756841        -0.026737         2.130327
 H        -0.237055         1.582133         0.209919
 H        -3.255785         1.117622         2.207880
 H        -3.206725         1.730014         0.353740
 H        -3.096248        -0.585074        -0.470367
 H        -4.263222        -1.252253         2.120683
 H        -3.701831        -2.351907         0.721183
 H        -2.613447        -2.815643         3.300576
 H        -0.911475        -1.508562         3.964108
 H        -0.944171         0.872408         2.867719
 H         0.377311         0.021892         1.963529
