19
Iteration:  2980charge 0 multiplicity 1
 O        -0.896588         0.866663        -0.188502
 C        -1.609608         0.418751         0.908477
 C        -3.082971         1.100897         1.258786
 C        -2.984363        -0.334032         0.742459
 C        -3.263118        -1.598403         1.370204
 C        -2.317118        -2.175870         2.433461
 O        -0.928234        -2.572478         2.072424
 C        -1.104258        -1.315317         2.887881
 C        -0.825593        -0.035972         2.118901
 H        -0.923196         0.241158        -0.974315
 H        -3.312500         1.359936         2.312568
 H        -3.454481         1.911070         0.606272
 H        -3.277705        -0.205612        -0.253079
 H        -4.209787        -1.538227         2.017139
 H        -3.536617        -2.321110         0.628330
 H        -2.831707        -2.964820         2.945023
 H        -0.961639        -1.527897         3.932111
 H        -0.897345         0.673093         2.944443
 H         0.261508         0.035520         1.871161
