19
Iteration:  2091
 O        -0.862610         0.930947        -0.137419
 C        -1.575696         0.440623         0.986573
 C        -2.978413         0.983316         1.172465
 C        -2.917817        -0.421707         0.697724
 C        -3.328341        -1.656190         1.474714
 C        -2.353490        -2.090716         2.530364
 O        -1.114362        -2.615151         2.007347
 C        -1.051615        -1.335716         2.727013
 C        -0.800061         0.041792         2.126040
 H        -1.388110         1.386715        -0.763689
 H        -3.284137         1.137518         2.241127
 H        -3.464530         1.615219         0.480704
 H        -3.117325        -0.498329        -0.340410
 H        -4.262130        -1.421679         2.000163
 H        -3.655386        -2.472438         0.794122
 H        -2.578280        -2.566878         3.461718
 H        -0.566507        -1.433415         3.701210
 H        -0.823655         0.740015         3.044119
 H         0.247807         0.008889         1.695595
