19
Iteration:  1515
 O        -0.865831         0.806043        -0.079639
 C        -1.648373         0.403710         0.935302
 C        -3.024171         0.956255         1.247924
 C        -2.864980        -0.427012         0.549525
 C        -3.270891        -1.770105         1.307743
 C        -2.340470        -2.087907         2.431236
 O        -0.937416        -2.459407         2.152895
 C        -1.215455        -1.232187         2.857362
 C        -0.823631         0.106675         2.132324
 H        -1.427668         1.019054        -0.826174
 H        -3.228248         0.996040         2.278655
 H        -3.616799         1.625926         0.501426
 H        -3.041471        -0.309791        -0.506010
 H        -4.183412        -1.562476         1.840789
 H        -3.586577        -2.714564         0.821472
 H        -2.649964        -2.673457         3.294569
 H        -1.136614        -1.244221         3.942782
 H        -0.874546         0.920361         2.896380
 H         0.270589         0.091897         1.863710
