19
Iteration:  4790charge 0 multiplicity 1
 O        -1.026621         0.876742        -0.275341
 C        -1.625715         0.442841         0.964483
 C        -3.055000         0.987777         1.277219
 C        -2.846140        -0.413693         0.640434
 C        -3.284759        -1.715782         1.417201
 C        -2.337811        -2.134000         2.470998
 O        -1.019202        -2.573076         2.074084
 C        -1.095853        -1.333632         2.833018
 C        -0.737925         0.084380         2.189744
 H        -0.688011         1.758316        -0.201724
 H        -3.362346         1.171426         2.293981
 H        -3.369173         1.863058         0.590275
 H        -2.989259        -0.250974        -0.476108
 H        -4.237225        -1.554995         1.840681
 H        -3.271674        -2.401462         0.614234
 H        -2.772229        -2.938699         2.976578
 H        -0.838256        -1.365166         3.905141
 H        -0.910232         0.889048         2.960798
 H         0.374148         0.036103         2.008834
