19
Iteration:  4623
 O        -0.939758         0.983624        -0.206285
 C        -1.632087         0.428633         0.861092
 C        -2.955035         0.890086         1.373350
 C        -2.873193        -0.444966         0.639191
 C        -3.244134        -1.751766         1.294930
 C        -2.350779        -2.068589         2.525328
 O        -1.120182        -2.533299         2.138766
 C        -1.175196        -1.202567         2.847956
 C        -0.731352        -0.063205         2.044623
 H        -0.830249         1.891108         0.083124
 H        -3.097965         0.874382         2.426329
 H        -3.595788         1.594226         0.812513
 H        -3.284754        -0.318381        -0.351393
 H        -4.238118        -1.817369         1.671899
 H        -3.035334        -2.561732         0.568010
 H        -2.933483        -2.619147         3.304246
 H        -0.652743        -1.272124         3.837810
 H        -0.771931         0.891830         2.660614
 H         0.344860        -0.231853         1.838849
