19
Iteration:  2255
 O        -0.985477         0.891774        -0.151467
 C        -1.646522         0.421849         0.963439
 C        -2.977707         1.018440         1.167941
 C        -2.819380        -0.438417         0.659794
 C        -3.329504        -1.540572         1.600812
 C        -2.322849        -2.178649         2.525191
 O        -1.070544        -2.482332         1.784689
 C        -1.119126        -1.341817         2.869489
 C        -0.807175        -0.018671         2.220470
 H        -0.034963         0.585728        -0.195016
 H        -3.299191         1.186190         2.221349
 H        -3.125965         1.635962         0.238490
 H        -3.019652        -0.546601        -0.426805
 H        -4.203795        -1.070755         2.058534
 H        -3.766021        -2.424058         1.023549
 H        -2.801211        -2.963466         3.254392
 H        -0.569867        -1.705161         3.747789
 H        -0.817894         0.947835         2.830552
 H         0.201622        -0.168970         1.836749
