19
Iteration:  2854charge 0 multiplicity 1
 O        -0.932218         0.992290        -0.114334
 C        -1.635798         0.402654         0.921278
 C        -3.048709         1.021144         1.260471
 C        -2.978016        -0.318893         0.669154
 C        -3.273760        -1.661897         1.358954
 C        -2.287942        -2.148648         2.477855
 O        -1.033398        -2.609352         2.177934
 C        -1.170587        -1.252284         2.839691
 C        -0.709621        -0.082673         2.034430
 H        -0.916202         0.318601        -0.806839
 H        -3.171226         1.287189         2.329194
 H        -3.161965         1.943707         0.789532
 H        -3.363217        -0.288147        -0.350207
 H        -4.279555        -1.740696         1.451442
 H        -3.149473        -2.331904         0.469670
 H        -2.751040        -2.841561         3.214087
 H        -0.791772        -1.422747         3.842940
 H        -0.544564         0.871711         2.504552
 H         0.236208        -0.342471         1.619933
