19
Iteration:     7
 O        -0.830121         0.747365        -0.064299
 C        -1.752423         0.309037         0.990892
 C        -3.152789         0.837511         0.729012
 C        -2.818190        -0.639576         0.574557
 C        -3.249742        -1.724526         1.476334
 C        -2.160970        -2.081817         2.479673
 O        -0.835966        -2.229691         2.021338
 C        -1.203080        -1.156578         2.959164
 C        -1.108318         0.226120         2.332819
 H        -0.079439         0.091237        -0.025945
 H        -3.670043         1.112183         1.649959
 H        -3.405447         1.684600         0.043357
 H        -2.737435        -0.929781        -0.565204
 H        -4.023790        -1.400535         2.224397
 H        -3.682351        -2.588665         0.899734
 H        -2.382810        -2.780230         3.320640
 H        -0.996693        -1.147293         4.061300
 H        -1.530600         0.927899         3.079711
 H        -0.074398         0.600463         2.298788
