19
Iteration:  4180
 O        -1.034431         0.983203        -0.275096
 C        -1.637379         0.365050         0.965885
 C        -3.004133         0.960852         1.260309
 C        -2.854193        -0.467288         0.636463
 C        -3.212950        -1.678910         1.354781
 C        -2.341747        -1.943669         2.521393
 O        -1.141048        -2.576785         2.099876
 C        -1.072074        -1.343669         2.812364
 C        -0.730534        -0.006032         2.168102
 H        -0.583553         1.836016        -0.020328
 H        -3.344709         0.991770         2.284574
 H        -3.512935         1.708766         0.566088
 H        -3.043554        -0.386569        -0.423136
 H        -4.240025        -1.834909         1.663660
 H        -2.965163        -2.666003         0.811533
 H        -2.682872        -2.773441         3.191141
 H        -0.793372        -1.409275         3.873017
 H        -0.741311         0.536249         3.116822
 H         0.349932        -0.050940         1.915460
