19
Iteration:  3882
 O        -0.946298         1.003996        -0.092887
 C        -1.638535         0.419915         0.956737
 C        -3.092369         1.002519         1.123694
 C        -2.886385        -0.444729         0.612965
 C        -3.276423        -1.647605         1.395834
 C        -2.269996        -2.059705         2.535316
 O        -1.101011        -2.621497         2.082518
 C        -1.074129        -1.272578         2.956098
 C        -0.755129        -0.082583         2.020089
 H        -0.724429         1.950788         0.209836
 H        -3.593334         0.842509         2.081327
 H        -3.384829         1.823529         0.485698
 H        -3.256045        -0.689971        -0.473947
 H        -4.311096        -1.613563         1.730922
 H        -3.094838        -2.591353         0.634031
 H        -2.910067        -2.575991         3.235717
 H        -0.383860        -1.492190         3.748267
 H        -0.408579         0.772060         2.645926
 H         0.142764        -0.438870         1.477113
