19
Iteration:  3867charge 0 multiplicity 1
 O        -0.917763         1.068923        -0.135763
 C        -1.719033         0.423779         0.920885
 C        -3.096585         0.927398         1.195940
 C        -2.898100        -0.426841         0.609476
 C        -3.194572        -1.747931         1.381704
 C        -2.362400        -2.024516         2.602782
 O        -1.160325        -2.614290         2.127815
 C        -1.067208        -1.329706         2.779964
 C        -0.676020        -0.028085         2.040429
 H        -0.313346         1.645059         0.337757
 H        -3.325302         1.199296         2.300667
 H        -3.510483         1.575328         0.393010
 H        -3.020021        -0.438253        -0.426019
 H        -4.285881        -1.766871         1.661840
 H        -2.980018        -2.522408         0.682880
 H        -2.785834        -2.575700         3.469719
 H        -0.726142        -1.372819         3.857304
 H        -0.497048         0.747966         2.753185
 H         0.257982        -0.206189         1.534928
