19
Iteration:  1781charge 0 multiplicity 1
 O        -1.102370         1.119568        -0.195747
 C        -1.633015         0.432535         0.889647
 C        -2.907171         0.889834         1.426001
 C        -2.828962        -0.431991         0.619277
 C        -3.050210        -1.812619         1.184791
 C        -2.507625        -1.956985         2.443379
 O        -1.173903        -2.623359         2.511270
 C        -1.224610        -1.243889         2.796276
 C        -0.555362        -0.167753         1.823095
 H        -1.284120         2.063236        -0.125682
 H        -3.066002         0.896452         2.469717
 H        -3.329578         1.872889         1.025038
 H        -3.059771        -0.197257        -0.387585
 H        -4.126309        -1.985820         1.315331
 H        -2.875783        -2.618022         0.391799
 H        -3.169767        -2.307826         3.286232
 H        -0.982956        -1.011702         3.835892
 H        -0.054204         0.633579         2.468688
 H         0.250449        -0.707602         1.306576
