19
Iteration:  1772charge 0 multiplicity 1
 O        -1.152268         1.152308        -0.221637
 C        -1.551926         0.361209         0.909463
 C        -3.027690         0.894521         1.415294
 C        -2.782438        -0.399273         0.563305
 C        -3.090114        -1.781152         1.134426
 C        -2.434554        -1.957280         2.530973
 O        -1.194841        -2.658260         2.504621
 C        -1.200565        -1.245544         2.782482
 C        -0.532798        -0.193197         1.859478
 H        -1.019818         1.981747         0.248919
 H        -2.903037         0.944996         2.443273
 H        -3.414534         1.761423         0.914392
 H        -3.206816        -0.324173        -0.409686
 H        -4.183983        -1.771163         1.286827
 H        -2.763969        -2.637984         0.479430
 H        -3.162824        -1.970511         3.410853
 H        -1.163330        -1.038963         3.853090
 H        -0.074584         0.620254         2.457413
 H         0.284137        -0.537724         1.263635
