19
Iteration:  4554
 O        -0.916080         1.092215        -0.065109
 C        -1.693726         0.420050         0.860174
 C        -2.982970         0.918528         1.331038
 C        -2.882129        -0.424147         0.551489
 C        -3.255341        -1.774745         1.311855
 C        -2.359079        -2.081049         2.584768
 O        -1.043695        -2.545324         2.271129
 C        -1.181946        -1.202643         2.796871
 C        -0.778722        -0.174279         1.858729
 H        -0.439959         1.930984         0.158053
 H        -3.084928         0.654342         2.415466
 H        -3.400582         1.750837         0.811964
 H        -3.299503        -0.445165        -0.470397
 H        -4.369183        -1.672181         1.447365
 H        -2.994873        -2.617145         0.615570
 H        -2.816801        -2.632872         3.465650
 H        -0.874049        -0.958422         3.786090
 H        -0.442627         0.640931         2.570678
 H         0.088242        -0.491175         1.183693
