19
Iteration:  1704
 O        -0.932595         1.268401        -0.068905
 C        -1.642826         0.412323         0.867249
 C        -3.022245         0.903711         1.332266
 C        -2.964868        -0.488282         0.539395
 C        -3.173002        -1.836426         1.219502
 C        -2.419551        -2.053372         2.534615
 O        -1.088912        -2.544767         2.468066
 C        -1.212909        -1.196716         2.804974
 C        -0.597459        -0.209568         1.869899
 H        -1.042755         0.772284        -0.937730
 H        -3.094523         0.962664         2.436591
 H        -3.303122         1.872211         0.817274
 H        -3.280763        -0.344804        -0.506700
 H        -4.268397        -1.802496         1.343683
 H        -3.004674        -2.681711         0.438283
 H        -2.951310        -2.535840         3.437665
 H        -1.261357        -0.871476         3.846694
 H         0.167951         0.472141         2.340847
 H         0.180447        -0.700393         1.215342
