19
Iteration:  1090
 O        -1.060636         1.254508        -0.090574
 C        -1.626207         0.415568         0.843103
 C        -3.038415         0.748921         1.389695
 C        -2.813110        -0.520028         0.496653
 C        -3.115267        -1.922041         1.120175
 C        -2.416074        -1.957290         2.499626
 O        -1.060707        -2.534004         2.746065
 C        -1.264098        -1.084575         2.765077
 C        -0.604657        -0.206862         1.674229
 H        -0.643812         1.937511         0.415561
 H        -3.471649         0.923763         2.385254
 H        -3.472916         1.552094         0.822861
 H        -3.363017        -0.460444        -0.444237
 H        -4.200243        -2.243923         1.222933
 H        -2.718415        -2.626505         0.372059
 H        -3.090161        -2.171067         3.340782
 H        -1.207495        -0.688668         3.752372
 H         0.170463         0.569678         2.077346
 H        -0.123912        -0.909301         0.938480
