19
Iteration:  4732charge 0 multiplicity 1
 O        -0.883747         0.932576        -0.087870
 C        -1.702050         0.381973         0.890853
 C        -3.040234         0.891520         1.252435
 C        -2.916907        -0.400401         0.546351
 C        -3.329682        -1.700610         1.413265
 C        -2.316993        -2.055769         2.545928
 O        -1.035435        -2.518567         2.082384
 C        -1.009121        -1.284507         2.779163
 C        -0.803722        -0.004405         2.048697
 H        -0.585155         1.839719         0.207769
 H        -3.280506         0.774739         2.317591
 H        -3.591796         1.554862         0.702684
 H        -3.213517        -0.249101        -0.460354
 H        -4.371187        -1.646788         1.849159
 H        -3.411553        -2.622208         0.761706
 H        -2.612432        -2.681046         3.400445
 H        -0.759876        -1.132666         3.802118
 H        -0.873010         0.793969         2.796287
 H         0.239258        -0.102804         1.798054
