19
Iteration:  2438
 O        -0.857090         1.007116        -0.117392
 C        -1.684372         0.356504         0.923773
 C        -2.982039         0.931689         1.258289
 C        -2.940471        -0.429289         0.550313
 C        -3.315533        -1.630581         1.497538
 C        -2.334806        -2.119872         2.494763
 O        -1.057164        -2.474105         2.015162
 C        -1.111047        -1.282077         2.815549
 C        -0.766451        -0.052362         2.163443
 H        -0.957030         0.312387        -0.790996
 H        -3.633461         0.963506         2.113636
 H        -3.307308         1.754308         0.563255
 H        -3.262772        -0.278536        -0.523517
 H        -4.243055        -1.463052         2.073170
 H        -3.384460        -2.518830         0.851213
 H        -2.674755        -2.839233         3.341763
 H        -0.486836        -1.381127         3.724439
 H        -0.750113         0.881561         2.830171
 H         0.352579        -0.150336         1.823336
