19
Iteration:  1910
 O        -0.920093         1.061034        -0.057600
 C        -1.653792         0.349956         0.896379
 C        -3.047248         0.823159         1.336880
 C        -2.915073        -0.421268         0.565596
 C        -3.297932        -1.739860         1.268100
 C        -2.364814        -1.930859         2.516951
 O        -1.121912        -2.598848         2.281782
 C        -1.119530        -1.200806         2.803752
 C        -0.594076        -0.150584         1.880109
 H        -1.240545         2.016299        -0.050872
 H        -3.165394         0.895459         2.436146
 H        -3.220038         1.737128         0.702910
 H        -3.302136        -0.291215        -0.399313
 H        -4.242745        -1.456325         1.691131
 H        -3.246228        -2.621653         0.630093
 H        -2.878249        -2.364393         3.403215
 H        -0.682603        -0.943767         3.755728
 H        -0.244489         0.679414         2.505062
 H         0.207966        -0.718500         1.345328
