19
Iteration:  2505charge 0 multiplicity 1
 O        -0.960916         0.932188        -0.198505
 C        -1.638664         0.420261         0.934405
 C        -2.935948         1.042391         1.337460
 C        -2.979507        -0.334884         0.627442
 C        -3.187885        -1.674758         1.304906
 C        -2.307697        -2.038034         2.459729
 O        -1.039570        -2.571455         2.187137
 C        -1.115343        -1.340926         2.849884
 C        -0.805198        -0.084355         2.085978
 H        -1.243328         0.476729        -0.982442
 H        -3.288722         1.286638         2.390692
 H        -3.476456         1.815004         0.797535
 H        -3.528319        -0.378575        -0.364260
 H        -4.243489        -1.851689         1.600172
 H        -2.925847        -2.486510         0.582004
 H        -2.909324        -2.632895         3.312658
 H        -0.709612        -1.405693         3.865971
 H        -0.897332         0.707598         2.930446
 H         0.284098        -0.085438         1.669054
