19
Iteration:  1179charge 0 multiplicity 1
 O        -0.993099         1.030705        -0.281212
 C        -1.663690         0.387318         0.793179
 C        -3.053350         0.880230         1.322848
 C        -2.939649        -0.378881         0.605131
 C        -3.074414        -1.756806         1.195549
 C        -2.382766        -2.126497         2.463665
 O        -0.916943        -2.490055         2.539675
 C        -1.293740        -1.194260         2.929349
 C        -0.768162        -0.156132         1.935382
 H        -0.836313         1.926194        -0.005446
 H        -3.061713         0.682827         2.367801
 H        -3.520386         1.716473         0.786773
 H        -3.177458        -0.278841        -0.486567
 H        -4.180436        -1.935708         1.279408
 H        -2.876797        -2.408118         0.305921
 H        -2.950389        -2.557536         3.314672
 H        -1.162948        -0.880169         4.003846
 H        -0.432486         0.743909         2.611011
 H         0.274033        -0.431170         1.567929
