19
Iteration:  3396charge 0 multiplicity 1
 O        -0.920067         0.956566        -0.123471
 C        -1.654186         0.417373         0.949697
 C        -3.089072         0.919280         1.115136
 C        -2.775259        -0.512656         0.626511
 C        -3.331367        -1.583292         1.555399
 C        -2.343923        -2.123955         2.509777
 O        -1.040941        -2.471348         1.967544
 C        -1.126593        -1.352687         2.796889
 C        -0.798152         0.011538         2.152376
 H        -0.076876         1.388109         0.178313
 H        -3.566017         0.804846         2.085657
 H        -3.404342         1.642264         0.435663
 H        -3.001129        -0.487430        -0.466202
 H        -4.324384        -1.257981         1.982988
 H        -3.762237        -2.419049         0.816655
 H        -2.685658        -2.707731         3.427186
 H        -0.584966        -1.512339         3.704886
 H        -0.569423         0.740651         2.944234
 H         0.177315        -0.171013         1.724198
