19
Iteration:  3198charge 0 multiplicity 1
 O        -0.946768         0.852151        -0.125075
 C        -1.646942         0.456932         1.020217
 C        -3.039788         1.053197         1.144239
 C        -2.940525        -0.383858         0.642705
 C        -3.341959        -1.575297         1.479327
 C        -2.361183        -2.109413         2.409100
 O        -0.942136        -2.533426         2.005558
 C        -1.069461        -1.395240         2.752549
 C        -0.764451         0.006795         2.243138
 H        -0.606263         0.031602        -0.477756
 H        -3.534129         1.242206         2.115542
 H        -3.429978         1.918998         0.524063
 H        -3.134854        -0.506296        -0.450794
 H        -4.265059        -1.432983         2.057822
 H        -3.585482        -2.374375         0.703261
 H        -2.528647        -2.824749         3.228155
 H        -0.889101        -1.484708         3.811624
 H        -0.674081         0.696082         3.086849
 H         0.250582         0.090468         1.829757
