19
Iteration:   118charge 0 multiplicity 1
 O        -0.900946         1.020108        -0.055003
 C        -1.717913         0.306940         0.958977
 C        -3.182991         0.756845         0.874321
 C        -2.832362        -0.604019         0.461979
 C        -3.208461        -1.728064         1.382753
 C        -2.279020        -2.123233         2.512708
 O        -0.891293        -2.348282         2.245207
 C        -1.204687        -1.119792         2.992907
 C        -0.880830         0.131394         2.206030
 H        -0.492053         0.334627        -0.595667
 H        -3.599668         0.998457         1.836876
 H        -3.318920         1.473701         0.127202
 H        -2.799391        -0.887593        -0.710930
 H        -4.184532        -1.412789         1.822065
 H        -3.559616        -2.618892         0.770927
 H        -2.759157        -2.840583         3.227471
 H        -0.900816        -1.239684         4.020727
 H        -0.813014         1.173506         2.716813
 H         0.187313        -0.069181         1.890631
