19
Iteration:  1644
 O        -0.934002         0.926034        -0.192073
 C        -1.658089         0.416079         0.992217
 C        -2.961643         0.874283         1.388661
 C        -2.937653        -0.456297         0.664387
 C        -3.138420        -1.829691         1.134570
 C        -2.420816        -1.935675         2.492118
 O        -1.113603        -2.538172         2.293011
 C        -1.169385        -1.182072         2.886846
 C        -0.683479        -0.018279         1.931586
 H        -1.185761         1.875760        -0.293382
 H        -3.177037         1.008198         2.401134
 H        -3.393953         1.693507         0.750250
 H        -3.143309        -0.424510        -0.387680
 H        -4.220925        -2.068448         1.232336
 H        -2.697458        -2.503599         0.452055
 H        -3.026941        -2.379426         3.199294
 H        -1.089766        -1.082586         3.984848
 H        -0.424074         0.757096         2.621714
 H         0.159790        -0.415473         1.362429
