19
Iteration:  1740charge 0 multiplicity 1
 O        -1.086487         1.226368        -0.080593
 C        -1.701554         0.378116         0.893029
 C        -3.036826         0.819009         1.334854
 C        -2.877884        -0.415484         0.409683
 C        -3.067590        -1.744334         1.197629
 C        -2.432577        -1.888023         2.558238
 O        -1.165926        -2.607347         2.469356
 C        -1.125068        -1.268262         2.862123
 C        -0.570223        -0.224198         1.810506
 H        -0.079327         1.169735        -0.018721
 H        -3.054672         0.633093         2.379000
 H        -3.294527         1.840368         1.055525
 H        -3.216564        -0.516873        -0.594016
 H        -4.148769        -1.724947         1.465530
 H        -2.851364        -2.692687         0.696410
 H        -3.042072        -2.191371         3.515287
 H        -0.982333        -1.065361         3.939345
 H        -0.103281         0.564348         2.365983
 H        -0.055437        -0.704501         1.006170
