19
Iteration:  3358
 O        -0.923734         0.726901        -0.157320
 C        -1.689407         0.328251         1.010174
 C        -3.027011         0.957665         1.152661
 C        -2.871688        -0.363551         0.619594
 C        -3.332667        -1.563267         1.449599
 C        -2.252675        -2.136776         2.472455
 O        -1.034148        -2.414681         1.896637
 C        -1.062541        -1.329895         2.831578
 C        -0.802584         0.036425         2.301594
 H        -0.728311         1.647673         0.065517
 H        -3.391248         1.236744         2.172118
 H        -3.417309         1.679051         0.313838
 H        -3.240163        -0.601299        -0.372744
 H        -4.294907        -1.504322         1.973752
 H        -3.482252        -2.292547         0.644282
 H        -2.649138        -2.674277         3.369824
 H        -0.788174        -1.549779         3.955063
 H        -0.996304         0.874485         3.048279
 H         0.187419         0.124530         1.755115
