19
Iteration:  3171charge 0 multiplicity 1
 O        -0.984903         0.777052        -0.165841
 C        -1.591616         0.300698         0.940899
 C        -2.931005         1.054302         1.268777
 C        -2.909947        -0.370227         0.723889
 C        -3.291568        -1.650403         1.442209
 C        -2.313213        -2.118982         2.383814
 O        -1.009575        -2.386634         1.881381
 C        -1.224421        -1.274789         2.906034
 C        -0.843020         0.007195         2.217010
 H        -0.125492         0.380565        -0.281452
 H        -3.371199         1.200694         2.246403
 H        -3.277637         1.920849         0.789542
 H        -3.243625        -0.390331        -0.297477
 H        -4.264440        -1.549587         1.980133
 H        -3.436481        -2.442128         0.703201
 H        -2.461104        -2.871812         3.080357
 H        -0.709650        -1.553250         3.876607
 H        -0.734697         0.948491         2.769697
 H         0.193900        -0.170212         1.899520
