19
Iteration:  3121charge 0 multiplicity 1
 O        -0.900015         0.897169        -0.080540
 C        -1.663200         0.440574         1.004540
 C        -3.053537         0.964121         1.195332
 C        -2.906707        -0.417788         0.631409
 C        -3.231923        -1.547887         1.484051
 C        -2.299551        -2.068884         2.471592
 O        -1.058785        -2.573456         1.942013
 C        -1.158710        -1.326910         2.781307
 C        -0.789719        -0.015668         2.158882
 H        -0.853885         0.114137        -0.657450
 H        -3.354984         1.326315         2.242843
 H        -3.355560         1.819088         0.556648
 H        -2.985188        -0.556446        -0.431184
 H        -4.182844        -1.263705         1.930365
 H        -3.488836        -2.469077         0.865345
 H        -2.594591        -2.750756         3.390179
 H        -0.568708        -1.495359         3.705961
 H        -0.904897         0.793301         2.948137
 H         0.275545         0.064127         1.752427
