19
Iteration:  4213
 O        -0.908729         0.997002        -0.169225
 C        -1.708525         0.421632         0.878722
 C        -2.948586         0.950498         1.325682
 C        -2.915364        -0.425826         0.573888
 C        -3.284612        -1.690723         1.384318
 C        -2.288981        -2.128777         2.475483
 O        -1.016206        -2.568093         2.257793
 C        -1.203169        -1.240609         2.807446
 C        -0.722179        -0.051794         1.988217
 H        -1.220879         1.881749        -0.043412
 H        -3.158039         0.881357         2.415472
 H        -3.483019         1.733087         0.756210
 H        -3.200144        -0.356726        -0.501551
 H        -4.258394        -1.555103         1.854157
 H        -3.472271        -2.511068         0.605443
 H        -2.802213        -2.955474         3.038416
 H        -0.967254        -1.230522         3.868537
 H        -0.556548         0.716937         2.774747
 H         0.186756        -0.390744         1.426131
