19
Iteration:  4249
 O        -0.993018         0.997857        -0.146235
 C        -1.712684         0.389702         1.013089
 C        -3.014577         0.968923         1.328757
 C        -2.925845        -0.417956         0.502977
 C        -3.237013        -1.669278         1.292025
 C        -2.402294        -2.069016         2.483132
 O        -1.036666        -2.538698         2.273949
 C        -1.098727        -1.227757         2.887048
 C        -0.618046        -0.173788         1.943521
 H        -1.157306         1.939726        -0.109088
 H        -3.362905         0.871601         2.389014
 H        -3.499716         1.798092         0.856731
 H        -3.107479        -0.470572        -0.592905
 H        -4.304945        -1.766809         1.523752
 H        -2.962952        -2.501984         0.541242
 H        -2.901003        -2.746073         3.265824
 H        -0.724041        -1.090103         3.900450
 H        -0.099869         0.619077         2.407454
 H         0.109402        -0.519602         1.190182
