19
Iteration:  4379
 O        -1.102991         1.224126        -0.258820
 C        -1.644107         0.423903         0.833350
 C        -2.928500         0.880234         1.494171
 C        -2.919483        -0.308061         0.534576
 C        -3.070569        -1.797003         1.152063
 C        -2.439282        -1.984305         2.588622
 O        -1.191215        -2.711792         2.505170
 C        -1.147582        -1.282725         2.834535
 C        -0.585121        -0.228156         1.829328
 H        -1.259226         2.146813         0.003153
 H        -3.014128         0.883255         2.550873
 H        -3.459742         1.731421         0.946431
 H        -3.260560        -0.272406        -0.500164
 H        -3.999033        -2.295679         1.069039
 H        -2.416242        -2.417152         0.494538
 H        -3.160090        -2.110739         3.467284
 H        -0.584007        -1.142246         3.714767
 H        -0.292288         0.503352         2.594676
 H         0.361890        -0.582148         1.340337
