19
Iteration:  2158charge 0 multiplicity 1
 O        -0.905993         0.755320        -0.176730
 C        -1.654167         0.391659         1.016471
 C        -2.927406         1.098362         1.236206
 C        -2.886851        -0.326860         0.754139
 C        -3.357058        -1.636334         1.438947
 C        -2.299060        -2.197156         2.405060
 O        -1.002845        -2.480879         1.937572
 C        -1.139087        -1.273681         2.779352
 C        -0.810113         0.047248         2.184953
 H        -1.536657         0.415525        -0.873404
 H        -3.223491         1.010769         2.322201
 H        -3.255712         1.798727         0.483668
 H        -3.023740        -0.462268        -0.313860
 H        -4.186083        -1.546549         2.138684
 H        -3.719847        -2.404131         0.765968
 H        -2.586136        -2.770058         3.257305
 H        -0.822604        -1.404281         3.834252
 H        -1.093157         0.659794         3.105992
 H         0.287660         0.164427         2.130989
