19
Iteration:  3448charge 0 multiplicity 1
 O        -0.944752         0.866510        -0.177277
 C        -1.730091         0.370249         0.977686
 C        -3.037477         0.974428         1.274544
 C        -2.928990        -0.370825         0.609346
 C        -3.274840        -1.575632         1.337183
 C        -2.370592        -2.013014         2.513898
 O        -0.951574        -2.580629         2.119373
 C        -1.098815        -1.367593         2.846284
 C        -0.738665        -0.062047         2.072716
 H        -0.876324         1.856941        -0.164865
 H        -3.371758         1.110045         2.312213
 H        -3.225848         1.723018         0.574250
 H        -2.817787        -0.325110        -0.456453
 H        -4.283214        -1.516713         1.653877
 H        -3.411352        -2.426827         0.669081
 H        -2.808157        -2.829339         3.106919
 H        -0.720092        -1.284979         3.883502
 H        -0.846722         0.678563         2.937417
 H         0.262704         0.054428         1.644994
