19
Iteration:  1390
 O        -0.860656         0.922884        -0.097708
 C        -1.704276         0.345725         0.977094
 C        -3.139822         1.018250         0.925422
 C        -2.926960        -0.496351         0.579065
 C        -3.402404        -1.739096         1.546050
 C        -2.228410        -2.166750         2.449880
 O        -0.939286        -2.427347         2.034181
 C        -1.132246        -1.229474         2.886325
 C        -0.869862         0.034395         2.233586
 H         0.058135         0.979321         0.139662
 H        -3.439724         1.218825         1.888962
 H        -3.186870         1.618047        -0.019802
 H        -2.715205        -0.620896        -0.488751
 H        -4.181825        -1.380396         2.261846
 H        -3.797167        -2.460331         0.832102
 H        -2.570330        -2.854117         3.178864
 H        -0.575676        -1.458972         3.874333
 H        -0.790817         0.858505         3.033480
 H         0.246284         0.062634         1.957442
