19
Iteration:  3375
 O        -0.993969         0.800949        -0.078110
 C        -1.673052         0.329245         1.051032
 C        -3.051209         0.964541         1.130526
 C        -2.875954        -0.473768         0.575560
 C        -3.363600        -1.590263         1.435562
 C        -2.292897        -1.996722         2.480581
 O        -1.028701        -2.449815         1.909791
 C        -1.061119        -1.313874         2.824450
 C        -0.724739         0.027048         2.219690
 H        -0.351249         1.478119         0.098346
 H        -3.605090         0.919254         2.073193
 H        -3.070802         1.773370         0.479951
 H        -2.721350        -0.699018        -0.525355
 H        -4.299028        -1.351015         2.035345
 H        -3.767415        -2.597470         1.070733
 H        -2.822804        -2.795213         3.020962
 H        -0.538995        -1.434337         3.734281
 H        -0.875140         0.828502         2.928591
 H         0.327526        -0.006443         1.975837
