19
Iteration:  4788
 O        -1.032856         0.872021        -0.273590
 C        -1.646293         0.430266         0.980499
 C        -3.047464         0.991501         1.269008
 C        -2.836172        -0.420572         0.655895
 C        -3.283718        -1.714004         1.404113
 C        -2.349733        -2.149288         2.455596
 O        -1.013245        -2.549737         2.076926
 C        -1.102052        -1.335150         2.826847
 C        -0.726602         0.091855         2.189034
 H        -0.719853         1.791676        -0.195348
 H        -3.323331         1.158544         2.274006
 H        -3.326364         1.848183         0.629423
 H        -2.937846        -0.282579        -0.450117
 H        -4.249415        -1.471734         1.874725
 H        -3.274147        -2.438933         0.603920
 H        -2.813212        -2.936061         3.025364
 H        -0.793871        -1.327683         3.845803
 H        -0.853005         0.915167         2.906754
 H         0.336421        -0.068022         2.069530
