19
Iteration:   533charge 0 multiplicity 1
 O        -0.981400         1.037542        -0.199461
 C        -1.726465         0.449868         0.850572
 C        -3.045892         0.892253         1.134213
 C        -2.772522        -0.555386         0.520040
 C        -3.178704        -1.771989         1.306800
 C        -2.316059        -2.059574         2.519904
 O        -0.854140        -2.506328         2.375598
 C        -1.247180        -1.208019         2.900831
 C        -0.900228         0.033135         2.123490
 H        -0.640155         0.260920        -0.665414
 H        -3.387143         1.054736         2.164687
 H        -3.684902         1.404586         0.431634
 H        -3.095912        -0.586148        -0.491633
 H        -4.232114        -1.689056         1.747716
 H        -3.123182        -2.738293         0.692434
 H        -2.790673        -2.700522         3.254182
 H        -1.136374        -0.948136         4.016813
 H        -1.061266         0.978436         2.736452
 H         0.178634         0.197849         1.845615
