19
Iteration:  1278charge 0 multiplicity 1
 O        -0.854406         0.985269        -0.087165
 C        -1.653553         0.353786         0.893658
 C        -3.106786         0.925771         1.002465
 C        -2.950766        -0.504442         0.552879
 C        -3.329673        -1.728569         1.403182
 C        -2.297499        -2.055685         2.455009
 O        -0.879857        -2.547117         2.246639
 C        -1.151479        -1.240552         2.913427
 C        -0.829780         0.022894         2.104364
 H        -1.029500         1.930786        -0.185656
 H        -3.443869         1.015112         2.056140
 H        -3.447854         1.670735         0.318250
 H        -3.030794        -0.621227        -0.516518
 H        -4.200919        -1.716628         2.073014
 H        -3.670051        -2.541092         0.774641
 H        -2.621121        -2.504025         3.408014
 H        -0.966241        -1.315325         3.990257
 H        -0.776489         0.907995         2.817310
 H         0.184865        -0.030329         1.629328
