19
Iteration:  1749charge 0 multiplicity 1
 O        -1.131498         1.230294        -0.167238
 C        -1.609547         0.414096         0.940181
 C        -3.004614         0.783139         1.350687
 C        -2.895774        -0.407395         0.409798
 C        -3.086150        -1.723202         1.219548
 C        -2.441218        -1.878730         2.537563
 O        -1.181842        -2.636188         2.511662
 C        -1.110982        -1.311354         2.892558
 C        -0.587754        -0.201281         1.792039
 H        -0.182982         1.408918         0.115437
 H        -3.380810         0.478168         2.269205
 H        -3.264065         1.857601         1.071072
 H        -3.178063        -0.389934        -0.624966
 H        -4.160699        -1.872099         1.485513
 H        -2.790347        -2.600446         0.545911
 H        -3.279988        -2.197628         3.256128
 H        -0.728924        -1.224389         3.913557
 H        -0.053387         0.661586         2.287933
 H         0.256179        -0.634344         1.285199
