19
Iteration:  4417charge 0 multiplicity 1
 O        -1.168173         1.147779        -0.156173
 C        -1.537518         0.387907         0.926147
 C        -3.014200         0.791505         1.509830
 C        -2.786046        -0.366500         0.518324
 C        -3.198520        -1.738007         1.140482
 C        -2.464057        -2.014944         2.467778
 O        -1.106815        -2.550485         2.498541
 C        -1.151654        -1.170734         2.793607
 C        -0.549321        -0.300577         1.797740
 H        -0.587903         1.881675        -0.027723
 H        -3.359613         0.587312         2.572723
 H        -3.527175         1.607010         1.048485
 H        -3.242179         0.006722        -0.444317
 H        -4.337141        -1.811490         1.172689
 H        -2.830517        -2.516324         0.453167
 H        -3.056354        -2.144694         3.369797
 H        -0.941978        -1.005238         3.934136
 H        -0.112396         0.594083         2.248341
 H         0.209640        -0.730021         1.172883
