19
Iteration:   476charge 0 multiplicity 1
 O        -0.918246         0.994211        -0.099208
 C        -1.678113         0.276109         0.881214
 C        -3.159385         0.783241         1.205602
 C        -2.876164        -0.529570         0.463186
 C        -3.114855        -1.809421         1.186945
 C        -2.393355        -2.017990         2.567010
 O        -0.957849        -2.355577         2.453323
 C        -1.168557        -1.090328         2.862993
 C        -0.739324        -0.015443         2.014743
 H        -1.564878         1.551278        -0.617531
 H        -3.510965         0.621185         2.205101
 H        -3.591719         1.606205         0.644914
 H        -3.023861        -0.555595        -0.640305
 H        -4.202160        -1.903828         1.488212
 H        -2.903590        -2.696987         0.545552
 H        -2.904112        -2.495058         3.322201
 H        -1.048079        -1.001428         3.930990
 H        -0.489976         0.975643         2.553584
 H         0.227231        -0.383255         1.549918
