19
Iteration:  1186charge 0 multiplicity 1
 O        -0.983365         0.996370        -0.229952
 C        -1.664479         0.359803         0.801522
 C        -3.046973         0.844639         1.318632
 C        -2.946746        -0.370928         0.502574
 C        -3.102004        -1.765114         1.196131
 C        -2.351657        -2.079316         2.460943
 O        -0.921887        -2.442789         2.501341
 C        -1.262053        -1.166789         2.926127
 C        -0.778154        -0.155068         1.972358
 H        -0.805948         1.902761         0.032518
 H        -3.188570         0.870658         2.402484
 H        -3.468138         1.828180         1.003617
 H        -3.507242        -0.214840        -0.421853
 H        -4.187909        -1.891936         1.287073
 H        -2.828196        -2.625982         0.595060
 H        -2.868267        -2.610881         3.246737
 H        -1.011428        -1.021150         3.929002
 H        -0.523018         0.673894         2.582713
 H         0.105314        -0.684109         1.679007
