19
Iteration:  2386
 O        -0.925852         0.908908        -0.153617
 C        -1.711101         0.477786         0.943531
 C        -3.077066         0.954735         1.078851
 C        -2.892132        -0.429937         0.653477
 C        -3.284411        -1.600573         1.548745
 C        -2.284079        -2.098500         2.499576
 O        -1.089702        -2.572122         1.953553
 C        -1.068880        -1.410051         2.811240
 C        -0.746364         0.004938         2.167275
 H        -0.097080         1.258584         0.273506
 H        -3.399480         1.224541         2.091301
 H        -3.331716         1.918809         0.575526
 H        -2.795420        -0.494650        -0.459236
 H        -4.072134        -1.171698         2.227583
 H        -3.834009        -2.437482         0.986327
 H        -2.785354        -2.706771         3.387105
 H        -0.599800        -1.476876         3.779795
 H        -0.919250         0.770867         2.920615
 H         0.252702         0.027898         1.788503
