19
Iteration:  4838
 O        -0.931576         0.910188        -0.105466
 C        -1.711989         0.410693         0.984997
 C        -3.049093         0.996378         1.181948
 C        -2.989963        -0.435260         0.632833
 C        -3.322420        -1.707827         1.413456
 C        -2.289086        -2.090830         2.523963
 O        -1.012923        -2.550785         2.032283
 C        -1.058940        -1.292333         2.796726
 C        -0.708979        -0.009938         2.067590
 H        -0.407186         1.689596         0.231719
 H        -3.553281         1.053585         2.184349
 H        -3.401223         1.733207         0.517237
 H        -3.239908        -0.436546        -0.391363
 H        -4.365546        -1.590612         1.731044
 H        -3.226171        -2.519775         0.632375
 H        -2.730934        -2.424988         3.501632
 H        -0.582531        -1.353581         3.815964
 H        -0.771759         0.840264         2.783185
 H         0.360779        -0.109086         1.756507
