19
Iteration:  4483
 O        -1.130672         1.103925        -0.264899
 C        -1.625347         0.499137         0.958479
 C        -3.011905         0.938134         1.358322
 C        -2.858767        -0.309383         0.615903
 C        -3.134468        -1.768603         1.182798
 C        -2.343242        -2.043480         2.507068
 O        -1.132185        -2.707492         2.426163
 C        -1.165315        -1.276978         2.845396
 C        -0.627542        -0.184017         1.901379
 H        -0.698250         1.983322        -0.021771
 H        -3.176929         0.849509         2.409370
 H        -3.440448         1.803773         0.777966
 H        -3.212827        -0.194597        -0.428756
 H        -4.199223        -2.101101         1.262659
 H        -2.560182        -2.365430         0.473023
 H        -2.923271        -2.204520         3.381207
 H        -0.995935        -1.135558         3.960491
 H        -0.192832         0.512245         2.593100
 H         0.199478        -0.661843         1.400443
