19
Iteration:  1486charge 0 multiplicity 1
 O        -0.861133         0.756134        -0.165832
 C        -1.661072         0.432061         0.948316
 C        -3.027329         1.036002         1.102401
 C        -3.023594        -0.351212         0.556813
 C        -3.229272        -1.697736         1.368871
 C        -2.260383        -2.203880         2.476563
 O        -0.850886        -2.432845         2.106945
 C        -1.260298        -1.309053         2.942370
 C        -0.932149         0.064765         2.252755
 H        -1.284565         1.522914        -0.564119
 H        -3.238661         1.196048         2.134986
 H        -3.293586         1.757243         0.308715
 H        -3.129210        -0.334993        -0.533079
 H        -4.227530        -1.644824         1.906183
 H        -3.273456        -2.560621         0.696348
 H        -2.598347        -2.974308         3.270096
 H        -0.827974        -1.346835         3.960918
 H        -0.642930         0.875147         2.885851
 H         0.049663        -0.226805         1.914844
