19
Iteration:  4201charge 0 multiplicity 1
 O        -0.973353         1.012109        -0.202578
 C        -1.578116         0.409783         0.862280
 C        -2.998920         0.924934         1.295350
 C        -2.876774        -0.366345         0.589982
 C        -3.264160        -1.709455         1.335090
 C        -2.405814        -2.159848         2.571281
 O        -1.002250        -2.592998         2.169235
 C        -1.158760        -1.306660         2.871061
 C        -0.785474        -0.022302         2.021431
 H        -0.877922         1.991584        -0.314898
 H        -3.141923         0.899302         2.360884
 H        -3.482075         1.845518         0.849070
 H        -3.259786        -0.298573        -0.421184
 H        -4.238067        -1.483179         1.799953
 H        -3.342631        -2.643853         0.737274
 H        -2.842576        -2.661359         3.467819
 H        -0.597427        -1.250275         3.826110
 H        -0.680625         0.908740         2.689672
 H         0.294815        -0.172745         1.791428
