19
Iteration:  3954charge 0 multiplicity 1
 O        -0.902909         0.824213        -0.134071
 C        -1.641877         0.358764         0.930983
 C        -3.033412         1.032662         1.252752
 C        -2.888420        -0.439136         0.696548
 C        -3.297364        -1.709721         1.383329
 C        -2.369844        -2.033263         2.521579
 O        -1.047246        -2.431044         2.025782
 C        -1.052437        -1.302237         2.758298
 C        -0.838203        -0.067514         2.147587
 H        -0.905595         1.788831        -0.272225
 H        -3.114703         1.230698         2.399843
 H        -3.440392         1.689598         0.490660
 H        -3.191014        -0.329754        -0.296703
 H        -4.418887        -1.777844         1.452426
 H        -2.924766        -2.426446         0.659823
 H        -2.745719        -2.778508         3.258399
 H        -0.468188        -1.361893         3.750312
 H        -0.977128         0.735649         2.936283
 H         0.252198        -0.050952         1.873873
