19
Iteration:  4141charge 0 multiplicity 1
 O        -0.924764         0.850032        -0.123599
 C        -1.638833         0.433213         0.979985
 C        -3.106897         0.953302         1.230040
 C        -2.899871        -0.383435         0.588949
 C        -3.322816        -1.683593         1.442753
 C        -2.330143        -2.046414         2.429805
 O        -0.940191        -2.477036         2.059349
 C        -1.152449        -1.267108         2.859033
 C        -0.754243        -0.079818         2.087879
 H        -0.266798         1.509491         0.075377
 H        -3.454809         0.858869         2.291999
 H        -3.537563         1.750497         0.651591
 H        -3.043943        -0.488310        -0.537223
 H        -4.293806        -1.480503         1.960382
 H        -3.589598        -2.560253         0.832300
 H        -2.842628        -2.812086         3.022161
 H        -0.784507        -1.268835         3.907546
 H        -0.630166         0.872652         2.671556
 H         0.154555        -0.373754         1.543430
