19
Iteration:  2306charge 0 multiplicity 1
 O        -0.823496         0.707617        -0.118675
 C        -1.720247         0.418124         0.930808
 C        -3.029525         1.184467         1.236513
 C        -2.941824        -0.336528         0.695044
 C        -3.251755        -1.574365         1.500253
 C        -2.284034        -2.131962         2.462905
 O        -1.022416        -2.537423         1.898013
 C        -1.025261        -1.316841         2.798919
 C        -0.901937        -0.018172         2.228976
 H        -1.266846         0.528371        -0.998068
 H        -3.190880         1.085493         2.294683
 H        -3.482717         1.908634         0.587149
 H        -3.172250        -0.399301        -0.354331
 H        -4.249190        -1.444949         2.012461
 H        -3.469470        -2.398244         0.786158
 H        -2.700115        -2.915164         3.163299
 H        -0.597229        -1.500173         3.770860
 H        -1.205032         0.680104         2.997578
 H         0.138408         0.124275         1.842166
