19
Iteration:   737charge 0 multiplicity 1
 O        -0.844861         0.858758        -0.129082
 C        -1.759773         0.500268         0.929518
 C        -3.121515         0.947319         0.897438
 C        -2.846802        -0.541131         0.621392
 C        -3.229617        -1.633155         1.498701
 C        -2.248716        -2.189003         2.558187
 O        -0.880229        -2.448923         2.063192
 C        -1.150214        -1.311881         2.833758
 C        -1.036651         0.144872         2.253963
 H        -0.191233         0.157033        -0.047545
 H        -3.489472         1.184892         1.897299
 H        -3.510531         1.660470         0.100298
 H        -2.832710        -0.704567        -0.466085
 H        -3.996754        -1.237824         2.218899
 H        -3.658484        -2.489514         1.005873
 H        -2.644191        -2.958329         3.223965
 H        -0.480974        -1.393505         3.732650
 H        -1.407009         0.762806         3.027960
 H        -0.057408         0.547093         2.055541
