19
Iteration:  1720
 O        -0.974698         1.270251        -0.023390
 C        -1.608309         0.385597         0.922437
 C        -3.009728         0.829868         1.329532
 C        -2.889441        -0.442784         0.580811
 C        -3.205859        -1.810621         1.224754
 C        -2.414760        -1.964228         2.506813
 O        -1.103110        -2.569038         2.459013
 C        -1.218049        -1.154049         2.823071
 C        -0.637838        -0.228348         1.716256
 H        -0.305151         0.701905        -0.503128
 H        -3.515938         0.791339         2.311885
 H        -3.478885         1.510286         0.664619
 H        -3.297952        -0.379862        -0.427722
 H        -4.255515        -2.022296         1.489677
 H        -2.808591        -2.518647         0.566276
 H        -3.125969        -2.257341         3.271890
 H        -0.753607        -1.044320         3.813362
 H        -0.129899         0.615424         2.171628
 H         0.124250        -0.896162         1.260005
