19
Iteration:  2376
 O        -0.895290         0.870429        -0.140842
 C        -1.650545         0.347467         0.959520
 C        -3.115426         1.048082         1.161126
 C        -2.836044        -0.453104         0.592591
 C        -3.340160        -1.524570         1.569277
 C        -2.318898        -2.093773         2.504466
 O        -1.039734        -2.525913         1.920760
 C        -1.063232        -1.335703         2.807054
 C        -0.805431        -0.017582         2.174257
 H        -0.231073         1.483637         0.221827
 H        -3.353896         0.984345         2.230007
 H        -3.630195         1.630722         0.372983
 H        -3.091092        -0.741321        -0.461098
 H        -4.213889        -1.253579         2.197179
 H        -3.695361        -2.420258         0.940672
 H        -2.742491        -2.878092         3.232973
 H        -0.515921        -1.600154         3.710822
 H        -0.792363         0.834223         2.889662
 H         0.189368        -0.111960         1.772092
