19
Iteration:    23charge 0 multiplicity 1
 O        -0.845939         0.653815        -0.071538
 C        -1.768644         0.325386         0.946659
 C        -3.188278         0.863419         0.808263
 C        -2.872514        -0.609722         0.482073
 C        -3.303509        -1.672324         1.507300
 C        -2.118807        -2.132002         2.355941
 O        -0.713600        -2.242243         2.097654
 C        -1.310217        -1.109358         3.009943
 C        -1.038379         0.214833         2.329640
 H         0.002449         0.916995         0.395854
 H        -3.821890         1.055308         1.707335
 H        -3.323456         1.524799        -0.005889
 H        -2.660084        -0.950918        -0.494041
 H        -3.995466        -1.219597         2.229702
 H        -3.849350        -2.518352         1.101176
 H        -2.485561        -2.945501         2.984545
 H        -1.050028        -1.230972         4.063810
 H        -1.284329         1.070186         2.952639
 H         0.038448         0.240604         2.178134
