19
Iteration:  1209
 O        -1.002794         0.927040        -0.103454
 C        -1.710661         0.309291         0.929590
 C        -3.046173         0.846073         1.271806
 C        -2.886633        -0.517168         0.557829
 C        -3.164848        -1.826088         1.216725
 C        -2.372241        -1.977979         2.444988
 O        -1.039973        -2.440951         2.302356
 C        -1.160891        -1.086764         2.928597
 C        -0.676332        -0.010005         1.950254
 H        -0.607383         1.738630         0.326642
 H        -3.384505         0.755187         2.277430
 H        -3.531645         1.752674         0.815480
 H        -2.794740        -0.428374        -0.540874
 H        -4.259073        -1.884726         1.254073
 H        -2.995823        -2.641215         0.546636
 H        -2.856928        -2.266948         3.371149
 H        -1.009808        -1.011165         3.939789
 H        -0.465832         0.878937         2.530048
 H         0.204995        -0.430777         1.518787
