19
Iteration:  2694
 O        -0.999321         1.195846        -0.189757
 C        -1.613474         0.387472         0.869713
 C        -2.917868         0.767747         1.490544
 C        -2.911953        -0.375972         0.602146
 C        -3.259138        -1.783113         1.169697
 C        -2.476830        -1.943307         2.514519
 O        -1.143738        -2.537497         2.339116
 C        -1.144913        -1.242157         2.827588
 C        -0.605196        -0.153828         1.912115
 H        -0.302343         0.874265        -0.760292
 H        -2.873746         0.651454         2.570837
 H        -3.496131         1.613363         1.096547
 H        -3.499116        -0.329687        -0.305592
 H        -4.267312        -1.999248         1.458042
 H        -3.000438        -2.612788         0.522011
 H        -2.933354        -2.278404         3.535515
 H        -0.797392        -1.260138         3.841135
 H        -0.236490         0.747571         2.463734
 H         0.244086        -0.719085         1.372464
