19
Iteration:  4577
 O        -1.046751         1.048143        -0.180974
 C        -1.702237         0.422839         0.917876
 C        -3.166695         0.944127         1.246319
 C        -2.879570        -0.343285         0.575644
 C        -3.185559        -1.670673         1.283367
 C        -2.325929        -2.034927         2.452394
 O        -1.044441        -2.654405         2.299093
 C        -1.094428        -1.330223         2.920647
 C        -0.600524        -0.146947         2.025591
 H        -0.469248         1.753373         0.100412
 H        -3.433333         1.033358         2.278489
 H        -3.230315         1.753643         0.516276
 H        -3.159253        -0.323209        -0.504995
 H        -4.233500        -1.623044         1.668165
 H        -3.081898        -2.517053         0.549064
 H        -3.003664        -2.491170         3.268686
 H        -0.987873        -1.239785         4.004854
 H        -0.259645         0.688940         2.725299
 H         0.177890        -0.340857         1.260821
