19
Iteration:  4525charge 0 multiplicity 1
 O        -1.019332         1.128479        -0.186847
 C        -1.597374         0.319766         0.869560
 C        -2.910609         0.806864         1.417259
 C        -2.925134        -0.437796         0.615885
 C        -3.269664        -1.765316         1.187962
 C        -2.409217        -1.973429         2.510628
 O        -1.093241        -2.554272         2.292617
 C        -1.202277        -1.148510         2.815111
 C        -0.577078        -0.158841         2.014514
 H        -1.002170         2.081940        -0.099038
 H        -3.197932         0.446174         2.377125
 H        -3.529139         1.696316         1.027862
 H        -3.217905        -0.412030        -0.461634
 H        -4.325821        -1.716806         1.325676
 H        -3.011001        -2.593946         0.516834
 H        -2.960335        -2.510707         3.339662
 H        -0.916825        -0.956668         3.937661
 H        -0.173640         0.672114         2.613725
 H         0.235559        -0.515370         1.377027
