19
Iteration:  4131
 O        -0.884158         0.872657        -0.140365
 C        -1.704072         0.434742         0.890820
 C        -3.054414         0.918618         1.206718
 C        -2.951643        -0.411605         0.627829
 C        -3.318406        -1.617078         1.390266
 C        -2.271148        -2.173496         2.443044
 O        -0.933984        -2.442400         2.056207
 C        -1.225806        -1.288426         2.958600
 C        -0.756435        -0.053481         2.054268
 H        -0.446200         1.683416         0.188579
 H        -3.249949         1.046914         2.294313
 H        -3.503129         1.652750         0.596906
 H        -3.340253        -0.363787        -0.438401
 H        -4.150239        -1.347259         2.120694
 H        -3.714261        -2.322878         0.709557
 H        -2.615395        -2.649441         3.333183
 H        -0.830743        -1.622473         3.942021
 H        -0.503316         0.782164         2.824342
 H         0.234737        -0.367886         1.722783
