19
Iteration:  3291charge 0 multiplicity 1
 O        -0.840373         0.743143        -0.074929
 C        -1.724306         0.340500         1.016774
 C        -3.039021         1.053497         1.118713
 C        -2.943575        -0.408811         0.594528
 C        -3.386600        -1.560558         1.509525
 C        -2.227388        -2.125896         2.469907
 O        -0.959437        -2.408980         1.886190
 C        -1.036674        -1.360878         2.851190
 C        -0.882269        -0.016815         2.232991
 H        -1.362790         1.271718        -0.745816
 H        -3.648042         1.208409         2.080484
 H        -3.255761         1.979670         0.522584
 H        -2.854943        -0.415734        -0.541638
 H        -4.350117        -1.309564         2.009530
 H        -3.507311        -2.375815         0.831283
 H        -2.541019        -2.831111         3.250244
 H        -0.746310        -1.475552         3.968042
 H        -0.851640         0.733745         3.088426
 H         0.206651        -0.100720         1.844514
