19
Iteration:  3181charge 0 multiplicity 1
 O        -0.983809         0.785056        -0.188521
 C        -1.675427         0.396627         1.039206
 C        -3.006002         1.090721         1.254054
 C        -2.882647        -0.340992         0.677293
 C        -3.376135        -1.636153         1.361190
 C        -2.262440        -2.209191         2.440951
 O        -0.995964        -2.446105         1.928431
 C        -1.147737        -1.271175         2.929607
 C        -0.795004         0.023228         2.177586
 H        -0.256948         0.178448        -0.275773
 H        -3.201651         1.107869         2.307749
 H        -3.136170         1.795273         0.462831
 H        -2.931374        -0.402198        -0.417089
 H        -4.255882        -1.332125         1.973047
 H        -3.655378        -2.449626         0.752047
 H        -2.747001        -2.974037         3.060303
 H        -0.506778        -1.637974         3.772126
 H        -0.775191         0.887892         2.882996
 H         0.286338        -0.137713         1.894145
