19
Iteration:  2735
 O        -1.107634         1.323522        -0.049956
 C        -1.655656         0.396376         0.924483
 C        -3.042529         0.916908         1.213095
 C        -2.803383        -0.461063         0.496778
 C        -3.242450        -1.620306         1.332730
 C        -2.421937        -1.939544         2.572502
 O        -1.105627        -2.680083         2.379185
 C        -1.031207        -1.391745         2.843284
 C        -0.585658        -0.243397         1.862138
 H        -0.597068         0.703991        -0.611813
 H        -3.624613         0.799219         2.048048
 H        -3.364890         1.825071         0.668736
 H        -3.064248        -0.347974        -0.508120
 H        -4.393756        -1.521210         1.440141
 H        -3.325389        -2.542099         0.718150
 H        -2.956078        -2.378456         3.447727
 H        -0.638183        -1.265016         3.832876
 H         0.084942         0.439261         2.424392
 H         0.085056        -0.793396         1.163019
