19
Iteration:  4824
 O        -0.918921         0.889261        -0.097473
 C        -1.705910         0.352515         0.887067
 C        -3.097335         1.034720         1.265480
 C        -2.937249        -0.356706         0.581157
 C        -3.232918        -1.680952         1.411201
 C        -2.319516        -2.019203         2.593332
 O        -1.022464        -2.597134         2.102063
 C        -0.997401        -1.343889         2.718775
 C        -0.859974         0.007822         2.041980
 H        -0.417492         1.579679         0.344958
 H        -3.324821         1.232009         2.363341
 H        -3.245391         1.873221         0.534899
 H        -3.245243        -0.473758        -0.495431
 H        -4.202514        -1.822499         1.773720
 H        -3.204709        -2.598873         0.816290
 H        -2.638307        -2.880988         3.129881
 H        -0.539957        -1.399060         3.755040
 H        -1.016314         0.639309         2.962904
 H         0.103893         0.330211         1.564212
