19
Iteration:  4322
 O        -1.127607         1.097409        -0.158057
 C        -1.655115         0.415745         0.870966
 C        -2.966361         0.862407         1.479386
 C        -2.851190        -0.375053         0.550615
 C        -3.151398        -1.704838         1.216214
 C        -2.429768        -2.037108         2.404164
 O        -1.029799        -2.508874         2.447948
 C        -1.223346        -1.215119         2.882487
 C        -0.601560        -0.278369         1.800053
 H        -0.396218         1.547455         0.355850
 H        -3.412448         0.691962         2.504135
 H        -3.366632         1.696918         0.955656
 H        -3.284468        -0.252579        -0.490862
 H        -4.216431        -1.868099         1.407113
 H        -2.881898        -2.335413         0.379525
 H        -2.962629        -2.355908         3.277867
 H        -1.129790        -1.102114         3.949136
 H         0.049978         0.539576         2.257263
 H         0.062673        -0.895258         1.141971
