19
Iteration:  3888charge 0 multiplicity 1
 O        -0.952957         0.983184        -0.089822
 C        -1.697307         0.404861         0.967265
 C        -3.098007         0.989596         1.147520
 C        -2.859635        -0.421969         0.515102
 C        -3.298481        -1.634323         1.407955
 C        -2.251185        -2.065911         2.547639
 O        -1.052173        -2.592217         2.094740
 C        -1.118358        -1.277189         2.905371
 C        -0.735280        -0.116443         2.056144
 H        -0.940971         1.935193         0.079248
 H        -3.548710         1.037265         2.193773
 H        -3.187164         1.827745         0.448663
 H        -3.136387        -0.551180        -0.480895
 H        -4.313973        -1.475800         1.849825
 H        -3.230630        -2.435068         0.765284
 H        -2.795286        -2.746677         3.249375
 H        -0.464228        -1.464084         3.793190
 H        -0.360483         0.689843         2.700017
 H         0.161956        -0.528419         1.574113
