19
Iteration:  1540
 O        -0.832633         1.018576        -0.081967
 C        -1.635225         0.302618         0.907083
 C        -3.099868         0.827337         1.205449
 C        -2.862154        -0.456758         0.567720
 C        -3.251297        -1.722543         1.375315
 C        -2.389417        -2.000783         2.529443
 O        -1.098638        -2.442131         2.104717
 C        -1.101954        -1.242818         2.907819
 C        -0.772506         0.040116         2.073170
 H        -1.113603         0.766065        -0.955786
 H        -3.512752         0.808161         2.248777
 H        -3.337320         1.690809         0.584339
 H        -2.979206        -0.573892        -0.518538
 H        -4.272258        -1.930401         1.504169
 H        -3.022350        -2.654933         0.835966
 H        -2.696455        -2.690060         3.407499
 H        -0.806024        -1.369194         3.964647
 H        -0.855793         0.829510         2.800276
 H         0.252970         0.034993         1.791745
