19
Iteration:  2799
 O        -1.016815         1.087897        -0.184678
 C        -1.588042         0.311358         0.863008
 C        -2.902324         0.888513         1.410742
 C        -2.984934        -0.391520         0.626374
 C        -3.253518        -1.743245         1.254711
 C        -2.344437        -1.996184         2.484619
 O        -1.121798        -2.539734         2.212133
 C        -1.187687        -1.226489         2.821084
 C        -0.626406        -0.066889         2.082781
 H        -0.441191         0.508590        -0.652419
 H        -3.071176         0.682606         2.443285
 H        -3.377954         1.770096         0.945095
 H        -3.432355        -0.357404        -0.336619
 H        -4.352249        -1.708817         1.608535
 H        -2.999788        -2.496611         0.438603
 H        -2.906551        -2.530995         3.222053
 H        -0.956417        -1.292761         3.892644
 H        -0.514354         0.911914         2.556226
 H         0.318472        -0.464759         1.741254
