19
Iteration:   965
 O        -1.117687         1.138595        -0.212695
 C        -1.639707         0.505245         0.912606
 C        -3.070190         0.847387         1.189766
 C        -2.828938        -0.450765         0.467225
 C        -3.170790        -1.778570         1.197817
 C        -2.381356        -2.088288         2.510713
 O        -0.973843        -2.573680         2.602240
 C        -1.200859        -1.182036         2.882464
 C        -0.642197        -0.185469         1.938886
 H        -0.639793         1.932265         0.028272
 H        -3.496275         0.766039         2.199831
 H        -3.497893         1.700422         0.611484
 H        -3.067884        -0.308992        -0.599035
 H        -4.248007        -1.842680         1.463188
 H        -2.968855        -2.699212         0.613167
 H        -3.070938        -2.570700         3.239781
 H        -0.909777        -1.000019         3.925098
 H        -0.222743         0.654054         2.599989
 H         0.197589        -0.587794         1.318153
