19
Iteration:  2021
 O        -0.894019         0.937925        -0.131107
 C        -1.600896         0.387843         0.950092
 C        -3.040685         0.940227         1.269365
 C        -2.942779        -0.454405         0.644525
 C        -3.353533        -1.705618         1.444389
 C        -2.413509        -2.088703         2.550505
 O        -1.040766        -2.462206         2.039733
 C        -1.131915        -1.228128         2.771540
 C        -0.671431        -0.070697         2.022833
 H        -0.296214         1.575771         0.278862
 H        -3.460655         1.050209         2.258006
 H        -3.359761         1.738134         0.609608
 H        -2.967156        -0.297468        -0.443764
 H        -4.329131        -1.506787         1.886117
 H        -3.562899        -2.494856         0.694275
 H        -2.950659        -2.672391         3.390162
 H        -0.730731        -1.452721         3.753670
 H        -0.229533         0.768031         2.561894
 H         0.104088        -0.595403         1.446101
