19
Iteration:  3466charge 0 multiplicity 1
 O        -0.960832         0.797733        -0.186963
 C        -1.602615         0.407101         0.987706
 C        -3.037633         0.993548         1.327786
 C        -2.911077        -0.355760         0.566739
 C        -3.221101        -1.705961         1.330784
 C        -2.338286        -2.042379         2.388091
 O        -1.073007        -2.526798         2.110508
 C        -1.134234        -1.250655         2.867952
 C        -0.710665        -0.017402         2.168436
 H        -1.273857         1.724658        -0.373254
 H        -3.349365         0.819606         2.402798
 H        -3.617939         1.890577         0.924801
 H        -3.260688        -0.310003        -0.423622
 H        -4.334847        -1.725180         1.674156
 H        -3.292679        -2.414916         0.490446
 H        -2.703716        -2.600794         3.257102
 H        -0.710740        -1.376754         3.930365
 H        -0.317793         0.741055         2.806649
 H         0.278355        -0.339990         1.696415
