19
Iteration:  1853charge 0 multiplicity 1
 O        -1.143728         1.187277        -0.201653
 C        -1.578857         0.379661         0.914172
 C        -2.972702         0.968198         1.394111
 C        -2.903991        -0.376613         0.623413
 C        -3.107873        -1.754566         1.204693
 C        -2.459061        -1.954210         2.491385
 O        -1.123198        -2.643917         2.427836
 C        -1.184552        -1.285338         2.819690
 C        -0.563391        -0.202928         1.881607
 H        -0.248522         0.821912        -0.342908
 H        -3.299114         0.932599         2.467428
 H        -3.529613         1.924140         0.963975
 H        -3.158226        -0.445608        -0.495523
 H        -4.196076        -1.935985         1.261364
 H        -2.779692        -2.504803         0.507284
 H        -2.967227        -2.457358         3.270033
 H        -1.000354        -0.992168         3.878722
 H        -0.082367         0.487808         2.554092
 H         0.171124        -0.716444         1.192698
