19
Iteration:   690charge 0 multiplicity 1
 O        -0.821064         0.714002         0.050743
 C        -1.661720         0.291655         0.965480
 C        -3.159396         0.874886         0.956518
 C        -2.853922        -0.569756         0.550788
 C        -3.308096        -1.728020         1.459374
 C        -2.321792        -2.097820         2.556452
 O        -0.910711        -2.229271         1.900340
 C        -1.142599        -1.176056         2.857053
 C        -0.878975         0.227200         2.314374
 H        -1.121045         0.674103        -0.891712
 H        -3.540984         1.096895         1.961388
 H        -3.454451         1.560696         0.208368
 H        -2.859180        -0.900502        -0.520631
 H        -4.319071        -1.368082         1.851374
 H        -3.480248        -2.691440         0.890385
 H        -2.532848        -2.904126         3.333605
 H        -0.746455        -1.285917         3.809451
 H        -1.088494         1.035706         3.015989
 H         0.184291         0.256803         2.021874
