19
Iteration:  2124
 O        -0.785342         0.745616        -0.076249
 C        -1.654187         0.324433         0.957659
 C        -3.009745         0.967563         1.244187
 C        -3.023301        -0.341770         0.697354
 C        -3.376411        -1.634574         1.453005
 C        -2.268604        -2.066036         2.477267
 O        -1.002963        -2.310893         1.904598
 C        -1.109692        -1.280847         2.838945
 C        -0.794849        -0.132176         2.126400
 H        -1.315349         0.911058        -0.889493
 H        -3.405625         0.955796         2.301358
 H        -3.508406         1.762372         0.803550
 H        -3.118835        -0.277513        -0.341972
 H        -4.276551        -1.401583         1.994379
 H        -3.539394        -2.371881         0.659717
 H        -2.720631        -2.711157         3.187576
 H        -0.702165        -1.396025         3.846997
 H        -0.692982         0.752611         2.839812
 H         0.149779        -0.128584         1.620339
