19
Iteration:  3964charge 0 multiplicity 1
 O        -0.889939         0.772531        -0.135333
 C        -1.718078         0.364069         1.014632
 C        -3.019855         0.994218         1.251763
 C        -2.948573        -0.367006         0.656148
 C        -3.290806        -1.707017         1.336408
 C        -2.309590        -2.037467         2.545370
 O        -1.061402        -2.524061         1.977893
 C        -1.047288        -1.304396         2.806168
 C        -0.786370         0.067010         2.116292
 H        -0.818602         1.709391         0.057576
 H        -3.277361         1.464648         2.282542
 H        -3.330340         1.693806         0.484318
 H        -3.087618        -0.394558        -0.364310
 H        -4.399047        -1.906528         1.529055
 H        -2.976722        -2.556599         0.641596
 H        -2.749537        -2.601041         3.422940
 H        -0.715706        -1.401699         3.876890
 H        -0.821897         0.795248         3.015899
 H         0.249592         0.189569         1.660921
