19
Iteration:  1231
 O        -1.039380         1.011784        -0.241793
 C        -1.638641         0.468679         0.976837
 C        -3.131184         0.765940         1.214473
 C        -2.761991        -0.553523         0.513305
 C        -3.137401        -1.757411         1.313442
 C        -2.477133        -1.948936         2.605645
 O        -1.053944        -2.535198         2.221651
 C        -1.160517        -1.233440         2.874984
 C        -0.626986         0.046711         2.105506
 H        -0.457778         1.749559        -0.093008
 H        -3.708609         0.823076         2.121787
 H        -3.504901         1.465659         0.429454
 H        -2.954346        -0.430728        -0.573162
 H        -4.252730        -1.747786         1.409541
 H        -3.103838        -2.631204         0.703349
 H        -2.852832        -2.547068         3.432607
 H        -0.894676        -1.192266         3.872000
 H        -0.486235         0.735080         2.919355
 H         0.317635        -0.214952         1.666901
