19
Iteration:   836charge 0 multiplicity 1
 O        -0.905785         0.759979        -0.134344
 C        -1.741110         0.308652         0.903961
 C        -3.100660         1.045380         1.044095
 C        -2.934733        -0.483815         0.607203
 C        -3.243955        -1.743099         1.379513
 C        -2.292888        -2.007841         2.596374
 O        -0.911998        -2.443382         2.083884
 C        -1.063917        -1.259436         2.825295
 C        -0.924449         0.093674         2.211790
 H        -0.239974         1.323766         0.305794
 H        -3.528319         1.167228         2.111303
 H        -3.222100         1.910487         0.411961
 H        -2.920955        -0.605269        -0.469201
 H        -4.336042        -1.691437         1.759154
 H        -3.163936        -2.583625         0.698193
 H        -2.763746        -2.809809         3.156237
 H        -0.561977        -1.306494         3.778194
 H        -1.269646         0.830906         2.892468
 H         0.118065         0.341148         2.154490
