19
Iteration:  3246charge 0 multiplicity 1
 O        -0.777332         1.036629        -0.062548
 C        -1.592142         0.389804         0.949396
 C        -3.069318         0.916815         1.079125
 C        -2.868298        -0.536310         0.655443
 C        -3.376139        -1.615957         1.606809
 C        -2.376143        -2.068403         2.616788
 O        -1.047595        -2.512843         1.805592
 C        -1.116385        -1.349851         2.776664
 C        -0.831193        -0.000365         2.180013
 H        -1.164817         0.875270        -0.969528
 H        -3.421386         1.076686         2.155842
 H        -3.455112         1.736289         0.442617
 H        -2.907941        -0.682680        -0.440634
 H        -4.279349        -1.266461         2.169019
 H        -3.656325        -2.445068         1.050433
 H        -2.659410        -2.777279         3.393224
 H        -0.403554        -1.500377         3.654812
 H        -1.005052         0.750360         2.998951
 H         0.318612         0.116482         2.094368
