19
Iteration:  1787charge 0 multiplicity 1
 O        -1.054222         1.113503        -0.195600
 C        -1.646459         0.452292         0.889633
 C        -2.838113         0.897270         1.467250
 C        -2.871610        -0.408891         0.630289
 C        -3.117724        -1.810859         1.117948
 C        -2.466029        -1.988216         2.490643
 O        -1.162381        -2.602917         2.509978
 C        -1.223995        -1.198667         2.809918
 C        -0.597464        -0.180761         1.828883
 H        -1.417111         1.988164        -0.386975
 H        -3.239628         0.666781         2.517343
 H        -3.319480         1.708817         0.920113
 H        -3.103078        -0.296347        -0.472924
 H        -4.196214        -2.016114         1.265948
 H        -2.664355        -2.540233         0.459848
 H        -3.079998        -2.508757         3.188372
 H        -0.923047        -1.014932         3.857082
 H        -0.155057         0.579521         2.434911
 H         0.101473        -0.789149         1.199671
