19
Iteration:  2908
 O        -1.057419         1.082532        -0.125908
 C        -1.574955         0.373544         1.029656
 C        -2.975331         0.891184         1.202821
 C        -2.807773        -0.483070         0.577502
 C        -3.318046        -1.633393         1.505193
 C        -2.463692        -2.068080         2.539434
 O        -1.143983        -2.531871         2.004061
 C        -1.086032        -1.272990         2.751284
 C        -0.625174        -0.039117         2.079657
 H        -0.140780         0.734765        -0.218785
 H        -3.596346         0.746044         2.167607
 H        -3.288397         1.715490         0.639700
 H        -2.711491        -0.625033        -0.529943
 H        -4.223621        -1.268101         1.923435
 H        -3.684865        -2.508849         0.933623
 H        -2.601231        -2.746811         3.409827
 H        -0.782786        -1.611428         3.748122
 H        -0.543121         0.878915         2.705178
 H         0.402631        -0.243818         1.755029
