19
Iteration:  1307charge 0 multiplicity 1
 O        -0.806184         0.773501        -0.054933
 C        -1.693690         0.385383         0.929161
 C        -3.121925         0.893243         1.113584
 C        -2.828640        -0.451025         0.602310
 C        -3.202300        -1.766546         1.415066
 C        -2.328535        -2.117776         2.526945
 O        -0.955379        -2.303242         2.010898
 C        -1.229942        -1.228000         2.940988
 C        -0.864974         0.068189         2.134417
 H        -1.145518         1.397495        -0.764290
 H        -3.695015         1.055582         2.064021
 H        -3.547052         1.673702         0.459228
 H        -2.968900        -0.530553        -0.510604
 H        -4.220455        -1.612776         1.971298
 H        -3.321012        -2.501829         0.558397
 H        -2.659897        -2.743670         3.435510
 H        -0.845941        -1.324815         3.937419
 H        -0.826784         0.934430         2.726956
 H         0.071736        -0.183516         1.695669
