19
Iteration:  3038charge 0 multiplicity 1
 O        -0.850605         0.882089        -0.153609
 C        -1.660993         0.395560         1.011600
 C        -2.993144         0.912923         1.262702
 C        -2.969975        -0.401976         0.634156
 C        -3.391539        -1.694704         1.476995
 C        -2.317458        -2.056958         2.482254
 O        -1.084637        -2.433505         1.897454
 C        -1.103078        -1.283205         2.801789
 C        -0.736803         0.041476         2.178763
 H         0.027779         0.568623        -0.309958
 H        -3.369063         0.783156         2.267309
 H        -3.426786         1.671798         0.579519
 H        -3.304898        -0.428201        -0.432865
 H        -4.399306        -1.427009         1.945397
 H        -3.499173        -2.601927         0.881968
 H        -2.579123        -2.731285         3.231515
 H        -0.655377        -1.551855         3.786581
 H        -0.655033         0.857917         2.906236
 H         0.302955        -0.177986         1.871107
