19
Iteration:  3775charge 0 multiplicity 1
 O        -0.906640         1.078980        -0.213360
 C        -1.667747         0.400631         0.891233
 C        -3.030964         0.985069         1.420895
 C        -3.014384        -0.328996         0.640222
 C        -3.078653        -1.791353         1.180095
 C        -2.382468        -2.013871         2.515359
 O        -1.106690        -2.685786         2.356270
 C        -1.136179        -1.277013         2.853341
 C        -0.682569        -0.136828         1.890994
 H        -1.127593         2.051293        -0.240878
 H        -3.446975         1.010678         2.403154
 H        -3.610908         1.606572         0.815651
 H        -3.479167        -0.257577        -0.426155
 H        -4.128857        -2.013989         1.421145
 H        -2.690414        -2.532955         0.470996
 H        -2.945419        -2.329147         3.389505
 H        -0.955156        -1.131817         3.932402
 H        -0.416754         0.666535         2.652522
 H         0.337536        -0.327756         1.409130
