19
Iteration:  2067charge 0 multiplicity 1
 O        -0.976315         1.049551        -0.178680
 C        -1.637427         0.328128         0.937704
 C        -3.004241         1.056039         1.147449
 C        -2.829397        -0.445057         0.523119
 C        -3.261287        -1.519018         1.533915
 C        -2.389282        -2.085033         2.584575
 O        -1.083973        -2.657826         2.051597
 C        -0.996725        -1.448649         2.836645
 C        -0.747539        -0.065570         2.153056
 H        -1.423942         1.791053        -0.624901
 H        -3.474876         0.988584         2.051603
 H        -3.231581         1.927330         0.503537
 H        -3.207023        -0.515488        -0.522888
 H        -4.222817        -1.256799         1.895339
 H        -3.600861        -2.416256         0.902477
 H        -2.729539        -2.735121         3.472302
 H        -0.643806        -1.561839         3.852847
 H        -0.946209         0.673796         3.003310
 H         0.248200         0.070074         1.714852
