19
Iteration:  4632
 O        -0.842575         1.015572        -0.179986
 C        -1.634037         0.338029         0.818134
 C        -2.962024         0.870579         1.386996
 C        -2.952107        -0.385099         0.648260
 C        -3.286022        -1.809891         1.356669
 C        -2.397663        -2.058288         2.480122
 O        -1.034917        -2.454960         2.138815
 C        -1.223699        -1.210361         2.866404
 C        -0.741587        -0.058542         2.016453
 H        -0.677929         1.946648        -0.062691
 H        -3.090545         0.719754         2.402670
 H        -3.750522         1.486407         0.837561
 H        -3.259583        -0.270317        -0.409335
 H        -4.409024        -1.799280         1.596430
 H        -3.258975        -2.672883         0.601683
 H        -2.768605        -2.620932         3.439773
 H        -0.570626        -1.299540         3.729757
 H        -0.637999         0.650921         2.926418
 H         0.236866        -0.254592         1.531580
