19
Iteration:  1779
 O        -1.116390         1.124522        -0.200821
 C        -1.611759         0.416499         0.895778
 C        -2.940389         0.889240         1.413480
 C        -2.814934        -0.431354         0.611394
 C        -3.042965        -1.811048         1.187264
 C        -2.505890        -1.955313         2.452507
 O        -1.177809        -2.630143         2.509380
 C        -1.223388        -1.253054         2.791313
 C        -0.550316        -0.166473         1.827975
 H        -1.236538         2.054573        -0.014854
 H        -2.996893         0.956588         2.529288
 H        -3.358469         1.913894         1.026233
 H        -3.100466        -0.190386        -0.425419
 H        -4.123062        -1.949702         1.316766
 H        -2.903936        -2.612950         0.409943
 H        -3.159812        -2.200193         3.284087
 H        -1.028406        -1.012518         3.849225
 H        -0.032103         0.629584         2.453496
 H         0.319916        -0.676022         1.300635
