19
Iteration:   346charge 0 multiplicity 1
 O        -1.156961         1.174132        -0.267434
 C        -1.614723         0.284126         0.814470
 C        -2.897161         0.838685         1.326734
 C        -2.816992        -0.515826         0.540663
 C        -2.995847        -1.859934         1.058840
 C        -2.405597        -2.098043         2.491301
 O        -1.016467        -2.419720         2.769341
 C        -1.373570        -1.082621         2.909120
 C        -0.735107        -0.183145         1.864914
 H        -1.110955         2.138547        -0.024805
 H        -3.085467         1.073254         2.294207
 H        -3.283077         1.621337         0.620423
 H        -3.197540        -0.234218        -0.539628
 H        -4.055154        -2.165584         1.027554
 H        -2.384484        -2.532280         0.381825
 H        -3.033814        -2.680229         3.126444
 H        -1.301287        -0.776659         3.934428
 H        -0.518402         0.688829         2.373362
 H         0.213086        -0.710280         1.535932
