19
Iteration:  4796charge 0 multiplicity 1
 O        -1.008762         0.881977        -0.271793
 C        -1.594090         0.468471         0.927630
 C        -3.059044         0.992048         1.274927
 C        -2.879702        -0.373094         0.615113
 C        -3.263272        -1.682080         1.412443
 C        -2.292034        -2.096567         2.498536
 O        -1.023353        -2.617023         2.065397
 C        -1.095420        -1.329834         2.857895
 C        -0.767971         0.050790         2.192782
 H        -0.574868         1.765934        -0.152948
 H        -3.410668         1.102698         2.317194
 H        -3.447064         1.691305         0.613960
 H        -3.172278        -0.369010        -0.412305
 H        -4.366704        -1.749910         1.796207
 H        -3.322757        -2.520979         0.621839
 H        -2.729790        -2.927630         3.183818
 H        -0.865666        -1.492916         3.908682
 H        -1.008343         0.690538         3.033419
 H         0.238909         0.298391         1.848505
