19
Iteration:  2895charge 0 multiplicity 1
 O        -0.983943         1.108586        -0.093449
 C        -1.622007         0.364249         0.932636
 C        -3.024373         0.898126         1.197147
 C        -2.860046        -0.455265         0.602005
 C        -3.391547        -1.591095         1.443354
 C        -2.315556        -2.091540         2.530238
 O        -1.103808        -2.597886         2.060592
 C        -1.125109        -1.317278         2.806511
 C        -0.643209        -0.033820         2.067859
 H        -0.160249         0.706831        -0.394246
 H        -3.412088         0.884072         2.267030
 H        -3.324279         1.721741         0.504064
 H        -3.081417        -0.576273        -0.440460
 H        -4.301916        -1.328452         2.066575
 H        -3.551466        -2.433370         0.792950
 H        -2.875521        -2.529972         3.313772
 H        -0.556926        -1.242980         3.770317
 H        -0.514915         0.663923         2.915170
 H         0.363920        -0.223164         1.586734
