19
Iteration:   751
 O        -0.850366         0.846520        -0.085293
 C        -1.718201         0.438893         0.942087
 C        -3.179204         0.985169         0.868743
 C        -2.884292        -0.491939         0.576053
 C        -3.382747        -1.671056         1.592510
 C        -2.220547        -2.194803         2.422867
 O        -0.818870        -2.476797         2.081496
 C        -1.072653        -1.225442         2.853398
 C        -0.987392         0.117129         2.235987
 H         0.113965         0.619267         0.070476
 H        -3.809091         1.296185         1.780163
 H        -3.354003         1.506435        -0.049659
 H        -2.930881        -0.760617        -0.469085
 H        -4.163545        -1.365348         2.270778
 H        -3.856864        -2.389456         0.927718
 H        -2.499805        -2.851822         3.227074
 H        -0.922665        -1.263726         4.064944
 H        -1.260304         0.841975         3.058181
 H         0.144478         0.047839         2.089894
