19
Iteration:  1476
 O        -0.891843         0.757138        -0.105928
 C        -1.736609         0.396285         0.943261
 C        -2.966876         1.111150         1.082740
 C        -2.935426        -0.431615         0.582726
 C        -3.254301        -1.756793         1.384552
 C        -2.274463        -2.171746         2.478896
 O        -0.890030        -2.427052         2.068715
 C        -1.173974        -1.267521         2.935969
 C        -0.896792         0.027014         2.213397
 H        -0.960383         1.680595        -0.433678
 H        -3.417793         1.398356         2.037049
 H        -3.362774         1.880176         0.431943
 H        -3.134488        -0.570498        -0.497068
 H        -4.285221        -1.678094         1.954668
 H        -3.303230        -2.575725         0.636581
 H        -2.848832        -2.916338         3.113588
 H        -0.946545        -1.229313         4.065580
 H        -1.034716         0.881530         2.920130
 H         0.081397         0.049067         1.724266
