19
Iteration:  1523
 O        -0.847435         0.856202        -0.066597
 C        -1.691328         0.392419         0.956224
 C        -2.990254         0.895741         1.222236
 C        -2.874562        -0.482272         0.537847
 C        -3.268179        -1.769217         1.303661
 C        -2.329446        -2.062060         2.499331
 O        -0.972538        -2.477452         2.144934
 C        -1.201040        -1.156816         2.791746
 C        -0.820887         0.115909         2.159220
 H        -1.412709         0.900077        -0.832039
 H        -3.249160         0.982008         2.304768
 H        -3.453790         1.775343         0.788981
 H        -3.141628        -0.503770        -0.529522
 H        -4.327486        -1.507370         1.744312
 H        -3.482863        -2.625317         0.591911
 H        -2.812328        -2.589419         3.263045
 H        -0.819499        -1.396683         3.841090
 H        -0.895096         0.954579         2.927089
 H         0.239083        -0.163052         1.821860
