19
Iteration:   603charge 0 multiplicity 1
 O        -0.884138         0.819917        -0.156120
 C        -1.709284         0.439183         0.888946
 C        -3.212418         0.862161         1.021340
 C        -2.750245        -0.587861         0.563013
 C        -3.232342        -1.692797         1.428782
 C        -2.263416        -2.096046         2.603873
 O        -1.032927        -2.414100         2.087516
 C        -1.124191        -1.197203         2.893139
 C        -0.849931         0.175720         2.235456
 H        -0.337675         1.624290        -0.017226
 H        -3.955171         0.677702         1.829879
 H        -3.546220         1.506871         0.266360
 H        -2.748583        -0.822269        -0.554576
 H        -4.324479        -1.668500         1.607302
 H        -2.996974        -2.578896         0.827278
 H        -2.745315        -2.769447         3.415919
 H        -0.638088        -1.410211         3.794054
 H        -1.134478         0.806054         2.996360
 H         0.209099         0.395129         2.130997
