19
Iteration:  4171
 O        -1.104134         0.902272        -0.140033
 C        -1.578451         0.401786         1.006097
 C        -3.017609         0.932555         1.203831
 C        -2.858046        -0.391142         0.609063
 C        -3.234367        -1.735249         1.334160
 C        -2.362481        -1.975453         2.515621
 O        -1.135121        -2.581067         2.049974
 C        -1.036497        -1.296570         2.839236
 C        -0.697501         0.007339         2.152910
 H        -0.413958         1.593107        -0.129205
 H        -3.399910         1.045847         2.248504
 H        -3.409236         1.739034         0.533278
 H        -3.050990        -0.407374        -0.500035
 H        -4.247697        -1.654997         1.694526
 H        -3.004310        -2.689405         0.686746
 H        -2.928634        -2.586362         3.347254
 H        -0.515404        -1.343059         3.783073
 H        -0.765226         0.856919         2.802394
 H         0.379164         0.072189         1.856125
