19
Iteration:    89charge 0 multiplicity 1
 O        -0.752598         0.876742        -0.009185
 C        -1.727818         0.350314         0.938762
 C        -3.234068         0.834247         0.902645
 C        -2.735077        -0.630789         0.534526
 C        -3.206774        -1.835482         1.385738
 C        -2.337179        -2.001701         2.627059
 O        -0.989232        -2.347600         2.127617
 C        -1.052421        -1.156550         2.851583
 C        -1.017849         0.228724         2.211696
 H        -1.035200         0.677355        -0.911800
 H        -3.545971         0.944692         1.965672
 H        -3.600294         1.391165         0.073186
 H        -2.652485        -0.807296        -0.464572
 H        -4.278155        -1.683321         1.621227
 H        -3.114180        -2.764382         0.849381
 H        -2.616235        -2.617628         3.461799
 H        -0.570365        -1.322714         3.816077
 H        -1.555322         0.819312         2.913167
 H        -0.013191         0.529094         2.178454
