19
Iteration:  4937charge 0 multiplicity 1
 O        -1.027118         0.903720        -0.116561
 C        -1.722269         0.487882         0.956261
 C        -3.071743         1.031195         1.272917
 C        -2.864970        -0.382881         0.617448
 C        -3.176935        -1.678688         1.380714
 C        -2.313201        -2.074245         2.507890
 O        -1.044420        -2.625801         2.078562
 C        -1.117459        -1.308268         2.832447
 C        -0.723919        -0.048200         2.027734
 H        -0.504284         1.723372         0.140133
 H        -3.480582         1.125783         2.211541
 H        -3.446808         1.753366         0.478507
 H        -3.112806        -0.529232        -0.461532
 H        -4.237330        -1.705271         1.619136
 H        -2.928930        -2.603968         0.817285
 H        -2.737142        -2.644198         3.389531
 H        -0.716016        -1.134830         3.851145
 H        -0.564878         0.762054         2.782666
 H         0.159622        -0.429441         1.448493
