19
Iteration:  1409charge 0 multiplicity 1
 O        -0.940913         0.910919        -0.083919
 C        -1.644438         0.373822         0.988514
 C        -3.024016         0.857509         0.973476
 C        -2.859225        -0.590455         0.598197
 C        -3.343154        -1.622929         1.496289
 C        -2.303290        -2.068522         2.518427
 O        -0.965897        -2.412669         1.964088
 C        -1.167024        -1.330250         2.843401
 C        -0.833273         0.114351         2.247855
 H        -0.067408         1.231620         0.119488
 H        -3.685882         1.067120         1.824676
 H        -3.155454         1.636709         0.121688
 H        -3.107234        -0.842597        -0.422314
 H        -4.223775        -1.127629         2.106754
 H        -3.605216        -2.481695         0.832873
 H        -2.548821        -2.901521         3.282293
 H        -0.829403        -1.394127         3.884846
 H        -0.998795         0.947557         2.978833
 H         0.229685         0.179429         2.003682
