19
Iteration:   928charge 0 multiplicity 1
 O        -0.943790         1.032813        -0.118686
 C        -1.664390         0.388364         0.906520
 C        -3.080699         0.763449         1.172359
 C        -2.865843        -0.495854         0.440455
 C        -3.162111        -1.780300         1.309099
 C        -2.400603        -1.894274         2.647927
 O        -1.111833        -2.500598         2.292847
 C        -1.110988        -1.215776         2.869684
 C        -0.694821        -0.044892         2.001777
 H        -1.146193         1.984830        -0.213245
 H        -3.485892         0.637994         2.158321
 H        -3.537517         1.612049         0.687463
 H        -3.245056        -0.760879        -0.530751
 H        -4.228208        -1.989986         1.329883
 H        -2.756187        -2.525698         0.597661
 H        -2.763742        -2.420766         3.516267
 H        -0.512776        -1.057964         3.893700
 H        -0.598928         0.719406         2.758884
 H         0.321137        -0.270627         1.661338
