19
Iteration:  1384charge 0 multiplicity 1
 O        -0.846557         0.903215        -0.087398
 C        -1.730016         0.354775         0.964438
 C        -3.130201         1.001676         0.907563
 C        -2.920246        -0.457784         0.631439
 C        -3.362882        -1.704082         1.473157
 C        -2.214570        -2.180323         2.510100
 O        -0.930105        -2.417104         2.041877
 C        -1.140347        -1.305641         2.891777
 C        -0.895179         0.060700         2.212207
 H         0.115998         0.819519         0.041636
 H        -3.604884         1.319592         1.932367
 H        -3.350601         1.785383         0.201365
 H        -2.889717        -0.727368        -0.444128
 H        -4.072340        -1.240008         2.162437
 H        -3.767939        -2.432689         0.737905
 H        -2.441232        -2.982150         3.297508
 H        -0.627069        -1.317398         3.809477
 H        -0.904978         0.865042         2.905679
 H         0.094454        -0.008917         1.808421
