19
Iteration:  2753
 O        -1.040606         1.271832        -0.064928
 C        -1.624520         0.462124         0.951060
 C        -3.154342         0.892199         1.190272
 C        -2.895979        -0.355508         0.493575
 C        -3.198268        -1.679253         1.399134
 C        -2.308188        -2.030887         2.537825
 O        -1.132803        -2.716121         2.321936
 C        -1.129640        -1.254028         2.887085
 C        -0.570582        -0.305893         1.867297
 H        -0.350557         0.806545        -0.565239
 H        -3.410298         1.029976         2.262313
 H        -3.410348         1.810679         0.549207
 H        -3.027416        -0.542013        -0.588459
 H        -4.151975        -1.432298         1.853566
 H        -3.230382        -2.475610         0.600536
 H        -2.993949        -2.307280         3.286662
 H        -0.753833        -1.232537         3.969055
 H         0.015542         0.469912         2.352107
 H         0.062525        -0.667764         1.081775
