19
Iteration:  1753
 O        -1.139793         1.228227        -0.184259
 C        -1.615139         0.411098         0.897910
 C        -2.982774         0.782033         1.362567
 C        -2.874460        -0.410161         0.458769
 C        -3.121614        -1.704252         1.191801
 C        -2.428150        -1.884752         2.541107
 O        -1.193635        -2.673125         2.522093
 C        -1.101706        -1.267948         2.882973
 C        -0.575258        -0.210337         1.824701
 H        -0.288633         1.574597         0.057859
 H        -3.591244         0.492586         2.289818
 H        -3.332773         1.690448         1.012131
 H        -3.089333        -0.251230        -0.613515
 H        -4.213984        -1.933168         1.274128
 H        -2.810887        -2.476745         0.549718
 H        -3.130665        -2.240634         3.303044
 H        -0.652504        -1.152108         3.884435
 H        -0.103729         0.596314         2.352761
 H         0.329360        -0.674988         1.391247
