19
Iteration:   866charge 0 multiplicity 1
 O        -0.915398         0.780374        -0.208846
 C        -1.703782         0.434417         0.921725
 C        -3.141452         1.047103         1.087159
 C        -2.867074        -0.476061         0.594631
 C        -3.316524        -1.695234         1.315852
 C        -2.225520        -2.152294         2.469646
 O        -0.853062        -2.471976         2.184090
 C        -1.205281        -1.211968         3.011051
 C        -0.840908         0.023568         2.201079
 H        -0.951653         1.768290        -0.286815
 H        -3.585167         1.165111         2.090667
 H        -3.447845         1.722710         0.342209
 H        -3.015787        -0.500998        -0.478263
 H        -4.138955        -1.459467         2.008335
 H        -3.593063        -2.542846         0.661269
 H        -2.672479        -2.983695         3.085438
 H        -0.820974        -1.344376         3.952724
 H        -0.614157         0.951516         2.832770
 H         0.154571        -0.260067         1.790049
