19
Iteration:  3402
 O        -0.887992         0.997137        -0.148909
 C        -1.651982         0.408419         0.928908
 C        -3.090842         0.918498         1.138855
 C        -2.782805        -0.489379         0.661268
 C        -3.327966        -1.591199         1.538746
 C        -2.299867        -2.132409         2.498986
 O        -1.074076        -2.531776         1.974307
 C        -1.151657        -1.322171         2.819581
 C        -0.804424         0.028660         2.153171
 H        -0.077939         1.419546         0.149732
 H        -3.689291         0.844083         2.063448
 H        -3.355676         1.668774         0.333598
 H        -3.096805        -0.632960        -0.339830
 H        -4.252813        -1.403760         2.082010
 H        -3.625347        -2.453349         1.041083
 H        -2.853022        -2.800237         3.136069
 H        -0.472106        -1.437560         3.718572
 H        -0.651427         0.919166         2.816707
 H         0.186173        -0.322222         1.726710
