19
Iteration:  3517
 O        -0.919204         1.058325        -0.176089
 C        -1.622680         0.428177         0.894921
 C        -2.969104         0.881928         1.340155
 C        -3.008877        -0.394581         0.576593
 C        -3.250502        -1.714708         1.308664
 C        -2.374382        -2.099535         2.447436
 O        -1.068661        -2.602562         2.270975
 C        -1.136214        -1.310922         2.953420
 C        -0.709250        -0.041886         1.939253
 H        -1.112307         2.010292        -0.240386
 H        -3.128754         0.897076         2.392955
 H        -3.188405         1.883713         0.918011
 H        -3.098554        -0.384194        -0.553876
 H        -4.266937        -1.739564         1.554084
 H        -3.315827        -2.564623         0.556926
 H        -2.831179        -2.548147         3.327396
 H        -0.820392        -1.386676         3.959713
 H        -0.407366         0.958513         2.370288
 H         0.231799        -0.315222         1.490760
