19
Iteration:  1828charge 0 multiplicity 1
 O        -0.919227         1.103786        -0.082757
 C        -1.688231         0.376996         0.918746
 C        -2.922878         0.907182         1.502192
 C        -3.006767        -0.352989         0.582666
 C        -3.146596        -1.739765         1.112285
 C        -2.357418        -2.007297         2.422918
 O        -1.082715        -2.582533         2.496240
 C        -1.172137        -1.161624         2.830863
 C        -0.718285        -0.206802         1.774364
 H        -1.014350         0.349182        -0.750342
 H        -3.275090         0.889195         2.540352
 H        -3.439674         1.671595         1.094517
 H        -3.520410        -0.180926        -0.376390
 H        -4.206440        -2.032456         1.176348
 H        -2.848735        -2.430058         0.321522
 H        -2.956132        -2.407090         3.280388
 H        -0.992369        -0.835591         3.859369
 H        -0.156655         0.598021         2.247499
 H        -0.004071        -0.651342         1.095746
