19
Iteration:  3609
 O        -1.049322         1.048555        -0.157156
 C        -1.633613         0.376417         0.839645
 C        -2.899413         0.864254         1.528619
 C        -2.935409        -0.350992         0.517200
 C        -3.172799        -1.789495         1.139926
 C        -2.434777        -2.064815         2.481227
 O        -1.067059        -2.590356         2.424343
 C        -1.214103        -1.123925         2.817913
 C        -0.643733        -0.123571         1.850344
 H        -0.631427         1.817384         0.302547
 H        -3.050844         0.724246         2.607361
 H        -3.549698         1.709743         1.181327
 H        -3.067312        -0.051788        -0.500205
 H        -4.168692        -1.963199         1.595673
 H        -3.078277        -2.563673         0.368549
 H        -3.097613        -2.412679         3.307412
 H        -0.968251        -1.179937         3.907032
 H        -0.200727         0.701300         2.352604
 H         0.280449        -0.478376         1.321446
