19
Iteration:  3540
 O        -1.064351         1.099447        -0.164268
 C        -1.621803         0.413086         0.994851
 C        -3.098554         0.970740         1.261118
 C        -2.843463        -0.408938         0.555949
 C        -3.167459        -1.638437         1.283460
 C        -2.388706        -1.986791         2.504421
 O        -1.058094        -2.688573         2.357147
 C        -1.116442        -1.311617         2.747413
 C        -0.639225        -0.209846         1.963446
 H        -0.912791         1.997519         0.152402
 H        -3.564205         0.979528         2.265053
 H        -3.674482         1.646557         0.600290
 H        -2.891134        -0.316704        -0.519633
 H        -4.176440        -1.495149         1.524989
 H        -3.305979        -2.670493         0.839396
 H        -2.826301        -2.426117         3.395347
 H        -0.851829        -1.266076         3.759614
 H        -0.200577         0.605124         2.550940
 H         0.274131        -0.480505         1.436834
