19
Iteration:    20charge 0 multiplicity 1
 O        -0.836969         0.669465        -0.075889
 C        -1.774922         0.312252         0.958044
 C        -3.206793         0.876384         0.791789
 C        -2.874424        -0.606072         0.507016
 C        -3.287305        -1.696866         1.514764
 C        -2.127817        -2.120952         2.349435
 O        -0.717028        -2.251073         2.072660
 C        -1.292290        -1.071241         3.019681
 C        -1.034767         0.195922         2.341222
 H        -0.013369         0.783738         0.376664
 H        -3.701392         0.962032         1.706815
 H        -3.280308         1.598078        -0.015761
 H        -2.570816        -1.035506        -0.579022
 H        -3.978645        -1.204091         2.244741
 H        -3.909364        -2.547779         1.082266
 H        -2.551155        -2.877345         3.055470
 H        -1.178485        -1.248306         4.095013
 H        -1.354596         1.014346         2.955969
 H        -0.003278         0.279583         2.154809
