19
Iteration:  3944
 O        -0.884708         0.874793        -0.197310
 C        -1.650762         0.393273         0.883060
 C        -2.957864         0.994890         1.245316
 C        -2.895614        -0.418911         0.691478
 C        -3.213976        -1.712898         1.369255
 C        -2.391352        -2.073410         2.540689
 O        -1.033324        -2.444055         2.009201
 C        -1.173999        -1.343069         2.862460
 C        -0.805677        -0.011822         2.147186
 H        -1.192910         1.814676        -0.329242
 H        -3.327093         0.942800         2.331633
 H        -3.469959         1.849683         0.819668
 H        -3.283213        -0.534819        -0.310205
 H        -4.234624        -1.653529         1.856260
 H        -3.377699        -2.469576         0.701813
 H        -2.721373        -2.844097         3.248159
 H        -0.538103        -1.518877         3.800913
 H        -0.941219         0.788526         2.883755
 H         0.257061        -0.114688         1.940589
