19
Iteration:   462charge 0 multiplicity 1
 O        -0.917515         1.066536        -0.145051
 C        -1.675587         0.444592         0.840044
 C        -3.082026         0.722110         1.202515
 C        -2.864136        -0.566323         0.465108
 C        -3.213845        -1.909614         1.251933
 C        -2.316473        -2.076956         2.474376
 O        -0.964786        -2.472739         2.523442
 C        -1.340552        -1.049707         2.944471
 C        -0.636034         0.041953         1.943307
 H        -1.383687         1.852276        -0.476140
 H        -3.294981         0.622940         2.271289
 H        -3.657376         1.600180         0.650836
 H        -3.198878        -0.539621        -0.652588
 H        -4.236167        -1.760363         1.608788
 H        -3.071004        -2.758678         0.605146
 H        -2.848669        -2.598117         3.331233
 H        -1.164287        -0.803005         3.962045
 H        -0.356903         1.017682         2.554036
 H         0.285247        -0.316126         1.456891
