19
Iteration:  1184charge 0 multiplicity 1
 O        -0.986081         1.003625        -0.244256
 C        -1.661758         0.368473         0.792946
 C        -3.053206         0.849397         1.308289
 C        -2.948705        -0.366677         0.534652
 C        -3.091673        -1.758088         1.206660
 C        -2.365439        -2.097526         2.454173
 O        -0.917495        -2.451215         2.514756
 C        -1.269440        -1.176558         2.922170
 C        -0.779578        -0.158852         1.963122
 H        -0.812338         1.943198         0.030915
 H        -3.148708         0.811186         2.444788
 H        -3.471351         1.796392         0.963340
 H        -3.417748        -0.199817        -0.424877
 H        -4.166672        -1.894436         1.239844
 H        -2.853366        -2.605164         0.497189
 H        -2.871279        -2.579774         3.271948
 H        -1.023525        -0.962263         4.014919
 H        -0.503084         0.645079         2.586980
 H         0.169378        -0.625113         1.681034
