19
Iteration:  3013charge 0 multiplicity 1
 O        -1.036792         0.812055        -0.147415
 C        -1.660026         0.375443         1.035212
 C        -2.917013         1.062910         1.233234
 C        -2.882838        -0.343619         0.728274
 C        -3.319079        -1.714712         1.363293
 C        -2.344175        -2.064073         2.447939
 O        -0.998921        -2.451631         1.955355
 C        -1.141021        -1.324951         2.847129
 C        -0.786949         0.020968         2.163604
 H        -0.600844         0.172221        -0.706275
 H        -3.034145         1.081071         2.356421
 H        -3.108969         1.863752         0.567404
 H        -3.079369        -0.339177        -0.300675
 H        -4.323516        -1.434076         1.675326
 H        -3.323756        -2.579734         0.738642
 H        -2.580128        -2.907902         3.052107
 H        -0.748015        -1.535003         3.858940
 H        -0.921677         0.869371         2.843934
 H         0.304761        -0.005819         1.975995
