19
Iteration:  1287
 O        -0.772954         0.918355        -0.079606
 C        -1.766548         0.395097         0.902817
 C        -3.126674         0.910225         1.016792
 C        -2.940075        -0.513525         0.562249
 C        -3.351584        -1.749597         1.435556
 C        -2.248041        -2.096359         2.446942
 O        -0.909051        -2.473625         2.207276
 C        -1.142228        -1.194775         2.893842
 C        -0.806309         0.023029         2.144180
 H        -1.160299         1.804158        -0.225142
 H        -3.432317         1.158054         2.066064
 H        -3.572117         1.686765         0.450802
 H        -3.052559        -0.655174        -0.527707
 H        -4.333264        -1.397800         1.922198
 H        -3.373902        -2.545966         0.702643
 H        -2.844636        -2.858211         3.114476
 H        -0.819025        -1.064833         3.877671
 H        -0.645858         0.844392         2.846951
 H         0.140386        -0.290408         1.719432
