19
Iteration:   465charge 0 multiplicity 1
 O        -0.911968         1.048572        -0.129792
 C        -1.688562         0.378168         0.854255
 C        -3.096126         0.743984         1.196544
 C        -2.881918        -0.541703         0.440848
 C        -3.182272        -1.891686         1.249109
 C        -2.346395        -2.086412         2.511564
 O        -0.959804        -2.439332         2.509890
 C        -1.307872        -1.060317         2.923235
 C        -0.623743         0.067447         1.950675
 H        -1.405800         1.771828        -0.500131
 H        -3.406434         0.602403         2.207397
 H        -3.703060         1.514334         0.728113
 H        -3.185351        -0.478147        -0.636621
 H        -4.274915        -1.806027         1.543171
 H        -3.116849        -2.757291         0.560585
 H        -2.857822        -2.573540         3.263710
 H        -1.120497        -0.835254         3.962311
 H        -0.341468         0.947595         2.631308
 H         0.297317        -0.354695         1.471248
