19
Iteration:  1155
 O        -1.156819         1.040122        -0.280516
 C        -1.654720         0.520111         0.878409
 C        -3.025417         0.971551         1.356812
 C        -2.794823        -0.455475         0.563057
 C        -3.013105        -1.947920         1.139547
 C        -2.384569        -2.090608         2.453105
 O        -1.077714        -2.639359         2.606527
 C        -1.251542        -1.132862         2.848072
 C        -0.676243        -0.037144         1.958285
 H        -0.820600         1.969033        -0.160057
 H        -3.088823         1.011982         2.418888
 H        -3.298561         1.699275         0.548716
 H        -3.287271        -0.140068        -0.367507
 H        -4.122179        -1.994716         1.146067
 H        -2.721890        -2.743762         0.471998
 H        -3.026647        -2.323274         3.304939
 H        -1.016691        -0.933126         3.808122
 H        -0.068142         0.694871         2.600477
 H         0.203965        -0.499539         1.471271
