19
Iteration:  3318
 O        -0.795626         0.717697        -0.119733
 C        -1.674396         0.380138         0.913151
 C        -2.987788         1.108856         1.180963
 C        -3.053464        -0.394655         0.722567
 C        -3.322242        -1.650156         1.473409
 C        -2.259614        -2.260815         2.440039
 O        -0.928141        -2.492772         1.942173
 C        -1.140570        -1.288960         2.784261
 C        -0.892019         0.108087         2.221074
 H        -1.076300         1.523913        -0.624938
 H        -3.069436         1.549953         2.151501
 H        -3.504076         1.753599         0.464210
 H        -3.165734        -0.205282        -0.291640
 H        -4.187592        -1.367484         2.076782
 H        -3.626086        -2.456876         0.702290
 H        -2.550640        -2.952405         3.256237
 H        -0.846561        -1.377154         3.801945
 H        -1.164277         0.738413         3.075320
 H         0.147919         0.241704         2.211616
