19
Iteration:  3859
 O        -0.950147         1.058090        -0.152248
 C        -1.659921         0.443014         0.939541
 C        -3.116400         0.941773         1.271629
 C        -2.846096        -0.470003         0.555174
 C        -3.232838        -1.747614         1.352984
 C        -2.371860        -2.010370         2.623853
 O        -1.104143        -2.590743         2.185635
 C        -1.118574        -1.321872         2.678379
 C        -0.693793        -0.050221         2.038715
 H        -0.274493         1.546142         0.300031
 H        -3.305586         1.215473         2.377803
 H        -3.271878         1.737160         0.581137
 H        -3.243289        -0.454139        -0.495713
 H        -4.304402        -1.693516         1.586487
 H        -3.002897        -2.696939         0.668066
 H        -2.835766        -2.510021         3.452287
 H        -0.717485        -1.338585         3.718088
 H        -0.610670         0.608678         2.905726
 H         0.307220        -0.218745         1.660150
