19
Iteration:  3658
 O        -1.102486         1.042888        -0.249861
 C        -1.700925         0.478806         0.933481
 C        -2.995976         1.089712         1.465156
 C        -2.903916        -0.348742         0.616686
 C        -3.041453        -1.836990         1.146123
 C        -2.432428        -2.105227         2.443530
 O        -1.138221        -2.649311         2.480231
 C        -1.107662        -1.214269         2.830467
 C        -0.662393        -0.201018         1.886175
 H        -0.712697         1.894187         0.002353
 H        -3.261469         0.991025         2.547453
 H        -3.110485         2.066482         1.076578
 H        -3.119062        -0.408026        -0.499663
 H        -4.099775        -2.213514         0.905202
 H        -2.359338        -2.323249         0.426101
 H        -3.088185        -2.455727         3.240640
 H        -0.823121        -1.224897         3.862519
 H        -0.174533         0.603196         2.497976
 H         0.128098        -0.487249         1.220358
