19
Iteration:   362charge 0 multiplicity 1
 O        -1.057689         1.106754        -0.269911
 C        -1.663451         0.387420         0.772937
 C        -3.009996         0.830623         1.350137
 C        -2.885772        -0.496503         0.468029
 C        -2.922275        -1.941192         1.099700
 C        -2.411182        -1.990270         2.484517
 O        -0.996498        -2.450417         2.658491
 C        -1.377381        -1.090864         2.973638
 C        -0.740898        -0.136065         1.911500
 H        -0.570343         1.906872         0.101923
 H        -3.060049         0.578555         2.489778
 H        -3.608157         1.591571         0.887486
 H        -3.351865        -0.369612        -0.468674
 H        -3.995718        -2.133136         1.158197
 H        -2.382803        -2.612681         0.431888
 H        -3.161110        -2.314154         3.321176
 H        -1.414340        -0.735074         4.034689
 H        -0.105669         0.725221         2.413450
 H         0.049268        -0.801867         1.510295
