19
Iteration:  2335
 O        -0.866105         0.699662        -0.139157
 C        -1.665816         0.360067         0.933698
 C        -2.907885         1.093744         1.204652
 C        -2.927494        -0.455453         0.745411
 C        -3.423776        -1.662690         1.490650
 C        -2.291373        -2.131509         2.399983
 O        -1.034154        -2.419931         1.848819
 C        -1.132437        -1.289555         2.832428
 C        -0.728409         0.098936         2.305977
 H        -1.503534         1.302974        -0.630514
 H        -3.345336         1.205194         2.227533
 H        -3.457821         1.778054         0.539071
 H        -3.151042        -0.387860        -0.334362
 H        -4.385285        -1.445363         1.920688
 H        -3.605843        -2.488360         0.818082
 H        -2.548237        -2.847892         3.083598
 H        -0.718183        -1.503774         3.858938
 H        -0.817395         0.866508         3.168562
 H         0.277799        -0.032667         1.848740
