19
Iteration:  4027charge 0 multiplicity 1
 O        -0.948580         0.958919        -0.179567
 C        -1.654280         0.353386         0.923496
 C        -2.954659         0.949521         1.145457
 C        -2.936487        -0.469102         0.596653
 C        -3.394210        -1.625285         1.554998
 C        -2.226784        -2.215632         2.433826
 O        -1.023438        -2.433715         1.990911
 C        -1.197766        -1.263555         2.868828
 C        -0.765977        -0.041790         2.174121
 H        -0.260503         1.458129         0.235191
 H        -3.127373         1.108715         2.235585
 H        -3.190307         1.679817         0.426974
 H        -3.069546        -0.436356        -0.430457
 H        -4.214081        -1.302248         2.180399
 H        -3.639972        -2.415209         0.737562
 H        -2.461832        -2.950391         3.291658
 H        -0.936016        -1.417475         3.894108
 H        -0.903595         0.748707         2.940777
 H         0.318627        -0.038732         1.941451
