19
Iteration:  1897charge 0 multiplicity 1
 O        -1.016069         1.148330        -0.150282
 C        -1.598437         0.376431         0.917746
 C        -2.958781         0.781554         1.363412
 C        -2.849156        -0.476668         0.537193
 C        -3.293751        -1.653241         1.329739
 C        -2.415861        -1.961790         2.507103
 O        -1.142811        -2.609768         2.351054
 C        -1.112541        -1.240158         2.763866
 C        -0.590977        -0.166407         1.866952
 H        -0.768976         1.994976         0.259811
 H        -3.404101         0.722609         2.383486
 H        -3.487192         1.685073         0.794482
 H        -3.144403        -0.441187        -0.547617
 H        -4.366414        -1.728944         1.562128
 H        -3.280500        -2.512652         0.705107
 H        -2.966624        -2.190542         3.402341
 H        -0.909182        -1.333902         3.846729
 H        -0.252488         0.646992         2.457495
 H         0.359588        -0.288002         1.309685
