19
Iteration:   282
 O        -1.076077         1.155741        -0.109117
 C        -1.731838         0.334893         0.869853
 C        -3.128714         0.699689         1.243609
 C        -2.892241        -0.530317         0.369836
 C        -2.981041        -1.873122         1.207309
 C        -2.412202        -1.812546         2.561775
 O        -1.112774        -2.501230         2.572643
 C        -1.196537        -1.039443         2.876746
 C        -0.602372        -0.179949         1.845271
 H        -0.393159         1.630432         0.463913
 H        -3.457498         0.671735         2.211305
 H        -3.417723         1.608159         0.692618
 H        -2.976350        -0.672938        -0.738521
 H        -3.843146        -2.482772         1.214154
 H        -2.264196        -2.571795         0.734338
 H        -3.018810        -2.042036         3.439885
 H        -0.957671        -0.712769         3.873319
 H        -0.242950         0.757475         2.307905
 H         0.321701        -0.750459         1.517123
