19
Iteration:  1447charge 0 multiplicity 1
 O        -0.864531         0.804354        -0.127859
 C        -1.661788         0.391921         0.973994
 C        -3.085886         0.873807         1.062351
 C        -2.862274        -0.476699         0.584540
 C        -3.278440        -1.682666         1.431907
 C        -2.343777        -2.050638         2.558305
 O        -0.995221        -2.486138         1.972372
 C        -1.076950        -1.228477         2.814746
 C        -0.880609         0.149383         2.277467
 H        -0.204015         1.541168         0.017248
 H        -3.551347         1.053254         2.130515
 H        -3.456118         1.589496         0.401125
 H        -3.008072        -0.647753        -0.493663
 H        -4.317414        -1.589268         1.793525
 H        -3.513792        -2.535136         0.766495
 H        -2.797540        -2.666762         3.278161
 H        -0.751628        -1.512238         3.853513
 H        -1.186325         0.830470         3.131021
 H         0.229369         0.212513         1.978143
