19
Iteration:  2990charge 0 multiplicity 1
 O        -0.906612         0.866444        -0.260359
 C        -1.733058         0.407075         0.972540
 C        -3.050198         1.101607         1.262749
 C        -2.958382        -0.248102         0.686758
 C        -3.247795        -1.632005         1.415913
 C        -2.285082        -2.198029         2.385219
 O        -0.954319        -2.518185         2.074452
 C        -1.177973        -1.394644         2.870925
 C        -0.760853        -0.027588         2.225017
 H        -1.015164         0.109145        -0.921750
 H        -3.156461         1.255386         2.331250
 H        -3.239028         1.874665         0.507747
 H        -3.305506        -0.377852        -0.294378
 H        -4.227939        -1.455107         1.815521
 H        -3.330807        -2.393145         0.653386
 H        -2.649379        -2.860105         3.179068
 H        -0.713569        -1.469632         3.862740
 H        -0.931763         0.818804         2.874889
 H         0.312857        -0.080826         1.950462
