19
Iteration:  2161
 O        -0.902643         0.767659        -0.194414
 C        -1.627445         0.398734         1.026100
 C        -2.938198         1.106575         1.238074
 C        -2.888587        -0.348375         0.759868
 C        -3.332893        -1.614546         1.446742
 C        -2.324306        -2.189854         2.408546
 O        -0.997948        -2.491699         1.945419
 C        -1.118012        -1.313139         2.759961
 C        -0.853027         0.065778         2.204629
 H        -1.445147         0.412816        -0.876044
 H        -3.246954         1.073927         2.305340
 H        -3.366683         1.807144         0.405304
 H        -3.107244        -0.519111        -0.377298
 H        -4.219745        -1.573321         2.185773
 H        -3.684890        -2.352726         0.717580
 H        -2.547521        -2.732426         3.313845
 H        -0.781756        -1.446535         3.812850
 H        -1.085487         0.676566         3.103451
 H         0.298722         0.068407         2.074056
