19
Iteration:   388
 O        -1.043615         0.947069        -0.158869
 C        -1.737831         0.452229         0.930511
 C        -3.263949         0.736495         1.325908
 C        -2.784697        -0.504436         0.489784
 C        -2.945574        -1.864299         1.080117
 C        -2.432316        -1.846023         2.497493
 O        -1.065162        -2.511164         2.636004
 C        -1.188672        -1.096982         2.872388
 C        -0.639744        -0.062012         1.826254
 H        -0.279378         1.538949         0.144567
 H        -3.423632         0.602538         2.343723
 H        -3.693418         1.542539         0.658372
 H        -3.085629        -0.319332        -0.644436
 H        -4.060956        -2.011205         0.994418
 H        -2.246301        -2.490000         0.503414
 H        -3.096983        -2.191428         3.199174
 H        -0.996588        -0.656555         3.824341
 H        -0.366773         0.702778         2.556045
 H         0.298850        -0.384321         1.347779
