19
Iteration:  3330charge 0 multiplicity 1
 O        -0.764054         0.710602        -0.196270
 C        -1.684975         0.448512         0.957508
 C        -2.971281         1.152373         1.220259
 C        -2.894466        -0.328629         0.695217
 C        -3.415310        -1.752083         1.534662
 C        -2.249768        -2.235494         2.437855
 O        -0.934528        -2.477452         1.952267
 C        -1.143564        -1.311522         2.760183
 C        -0.980719         0.090518         2.225827
 H        -1.011470         1.581850        -0.480507
 H        -3.274465         1.164344         2.243072
 H        -3.242053         1.915545         0.562346
 H        -3.241681        -0.603446        -0.250604
 H        -4.337036        -1.813090         2.129322
 H        -3.632491        -2.483187         0.688679
 H        -2.572567        -2.850505         3.284406
 H        -0.770760        -1.387103         3.731419
 H        -1.240933         0.827018         2.951358
 H        -0.000055         0.237388         1.874003
