19
Iteration:  1493charge 0 multiplicity 1
 O        -0.814996         0.772638        -0.212992
 C        -1.682705         0.407029         0.956251
 C        -3.086485         0.990590         1.135228
 C        -2.972342        -0.367575         0.629989
 C        -3.241345        -1.646896         1.360615
 C        -2.264660        -2.196022         2.420958
 O        -0.859645        -2.427832         2.159430
 C        -1.240968        -1.244399         2.942319
 C        -0.900592         0.037874         2.214008
 H        -1.419471         1.430764        -0.659443
 H        -3.364010         1.164749         2.157788
 H        -3.367035         1.853756         0.407614
 H        -3.143948        -0.475842        -0.425355
 H        -4.229292        -1.700391         1.715337
 H        -3.473806        -2.384426         0.569712
 H        -2.610485        -3.018477         3.089206
 H        -0.853960        -1.558439         3.867643
 H        -0.790498         0.849168         2.983279
 H         0.133013        -0.354506         2.056034
