19
Iteration:   174charge 0 multiplicity 1
 O        -0.893152         0.836216        -0.216386
 C        -1.731881         0.437092         0.871093
 C        -3.169947         0.818890         1.163218
 C        -2.833887        -0.521941         0.499261
 C        -3.071527        -1.846638         1.202718
 C        -2.359163        -1.982713         2.555683
 O        -0.980861        -2.438171         2.377563
 C        -1.151505        -1.132584         2.953354
 C        -0.830869         0.068696         2.122968
 H        -0.681566         1.799878        -0.024411
 H        -3.466878         0.779550         2.197041
 H        -3.781685         1.483021         0.614948
 H        -3.212838        -0.555652        -0.553900
 H        -4.176767        -1.971257         1.206428
 H        -2.641346        -2.634632         0.518538
 H        -2.962108        -2.475987         3.345203
 H        -1.055695        -1.010081         4.016243
 H        -1.052351         1.017534         2.694630
 H         0.212800         0.194756         1.806920
