19
Iteration:   757charge 0 multiplicity 1
 O        -0.863826         0.854822        -0.063971
 C        -1.725778         0.321704         0.930379
 C        -3.187241         0.985285         0.857409
 C        -2.943306        -0.507151         0.584251
 C        -3.405320        -1.626041         1.574530
 C        -2.178328        -2.176101         2.418610
 O        -0.793286        -2.475240         2.048182
 C        -1.149934        -1.206609         2.900441
 C        -0.882484         0.121063         2.275621
 H         0.082020         0.837002         0.113845
 H        -3.817405         1.319168         1.632732
 H        -3.238976         1.576849        -0.099490
 H        -2.900371        -0.742857        -0.498296
 H        -4.194177        -1.429681         2.370655
 H        -3.815772        -2.368410         0.856672
 H        -2.491262        -2.775180         3.314235
 H        -1.008667        -1.358570         3.883522
 H        -1.192511         0.921559         2.929456
 H         0.171920         0.090160         2.066530
