19
Iteration:  2007
 O        -0.981082         0.942175        -0.177175
 C        -1.669440         0.361695         0.949031
 C        -2.958540         0.945893         1.301249
 C        -2.896941        -0.411710         0.621545
 C        -3.311871        -1.675591         1.359735
 C        -2.318597        -2.017470         2.492893
 O        -1.111203        -2.461065         2.058560
 C        -1.164613        -1.282491         2.910185
 C        -0.700058        -0.114508         2.017616
 H        -0.037485         1.168784         0.134034
 H        -3.045972         1.012644         2.468342
 H        -3.332567         1.784610         0.741981
 H        -3.332366        -0.536859        -0.305559
 H        -4.357479        -1.570280         1.748067
 H        -3.130772        -2.539141         0.765474
 H        -2.651576        -2.721659         3.208006
 H        -0.697807        -1.257090         3.916612
 H        -0.564184         0.708662         2.669025
 H         0.262658        -0.324181         1.533227
