19
Iteration:  3805
 O        -1.038956         0.939298        -0.221989
 C        -1.615083         0.387378         0.974645
 C        -2.932415         0.978897         1.432707
 C        -2.894391        -0.363066         0.622249
 C        -3.226627        -1.744922         1.179733
 C        -2.402164        -2.055602         2.471750
 O        -0.973643        -2.467491         2.276123
 C        -1.255367        -1.234800         2.871540
 C        -0.691209        -0.162911         1.946972
 H        -1.002841         1.872285         0.007642
 H        -3.336342         0.890531         2.450273
 H        -3.498944         1.735775         0.982751
 H        -2.894175        -0.279506        -0.460601
 H        -4.249869        -1.978058         1.357574
 H        -2.988493        -2.548960         0.387593
 H        -2.826863        -2.635437         3.279167
 H        -1.265396        -1.187527         3.939785
 H        -0.262068         0.660165         2.616918
 H         0.139157        -0.646050         1.395089
