19
Iteration:  4104charge 0 multiplicity 1
 O        -0.937969         0.908039        -0.168996
 C        -1.611759         0.435637         0.896816
 C        -2.901276         1.018391         1.166349
 C        -2.911061        -0.386787         0.673369
 C        -3.374574        -1.724648         1.473840
 C        -2.333952        -2.140249         2.470072
 O        -0.913952        -2.497769         2.065559
 C        -1.211750        -1.350872         2.852799
 C        -0.858760        -0.019397         2.088398
 H        -1.024203         1.883741        -0.223720
 H        -3.253179         1.077091         2.189547
 H        -3.195326         1.905304         0.552948
 H        -3.009417        -0.468776        -0.361145
 H        -4.217393        -1.599123         2.130401
 H        -3.578206        -2.561037         0.706127
 H        -2.669120        -2.886428         3.265566
 H        -0.770169        -1.509931         3.819568
 H        -1.030640         0.690625         2.847803
 H         0.226224         0.005599         2.075929
