19
Iteration:  2151
 O        -0.924412         0.725223        -0.138247
 C        -1.639075         0.391370         0.983084
 C        -2.930621         1.060984         1.263097
 C        -2.920038        -0.355468         0.721532
 C        -3.381110        -1.670684         1.454020
 C        -2.257955        -2.161440         2.397441
 O        -0.994325        -2.458355         1.925704
 C        -1.183207        -1.257456         2.811462
 C        -0.753020         0.022226         2.197290
 H        -1.460787         0.526404        -0.919447
 H        -3.253743         1.244179         2.307031
 H        -3.177439         2.027330         0.655927
 H        -2.998849        -0.350924        -0.439336
 H        -4.299602        -1.323084         2.067664
 H        -3.682934        -2.453407         0.732414
 H        -2.734190        -2.915378         3.089879
 H        -0.794508        -1.389438         3.834689
 H        -1.047138         0.790244         2.927062
 H         0.342657         0.304531         2.020924
