19
Iteration:  1592
 O        -1.073717         1.111371        -0.138146
 C        -1.649409         0.383888         0.915845
 C        -3.068414         0.932175         1.161110
 C        -2.809104        -0.461639         0.507506
 C        -3.223697        -1.674150         1.301851
 C        -2.360729        -2.117355         2.470431
 O        -0.996227        -2.598507         2.361028
 C        -1.197913        -1.236492         2.853147
 C        -0.641328        -0.071788         2.016433
 H        -0.126759         1.087771         0.038850
 H        -3.458664         0.948526         2.205357
 H        -3.508891         1.709823         0.463570
 H        -3.128894        -0.518987        -0.522691
 H        -4.158508        -1.327624         1.812999
 H        -3.716124        -2.581268         0.791115
 H        -2.952857        -2.519876         3.367216
 H        -0.918735        -1.204242         3.888559
 H        -0.478790         0.642886         2.885437
 H         0.378296        -0.405726         1.603498
