19
Iteration:   566
 O        -0.979978         0.965640        -0.153614
 C        -1.692115         0.286713         0.958286
 C        -3.076086         0.837743         1.069633
 C        -2.867132        -0.589773         0.475562
 C        -3.315086        -1.759791         1.402593
 C        -2.308470        -2.057686         2.482847
 O        -0.854509        -2.299873         2.203344
 C        -1.229822        -1.154202         2.974644
 C        -0.784764         0.036521         2.123274
 H        -0.072948         0.950690         0.261639
 H        -3.706382         0.954201         1.945222
 H        -3.321031         1.562391         0.233472
 H        -2.929361        -0.792638        -0.564812
 H        -4.406997        -1.648428         1.692965
 H        -3.347567        -2.637557         0.675925
 H        -2.520311        -2.870108         3.173342
 H        -1.006217        -1.094700         4.119520
 H        -0.977380         0.991701         2.744183
 H         0.328243        -0.162994         1.896653
