19
Iteration:  3234
 O        -0.812566         1.020516        -0.026929
 C        -1.678646         0.414783         0.897045
 C        -2.986012         0.984046         1.073716
 C        -2.879847        -0.451785         0.556121
 C        -3.321750        -1.639663         1.609050
 C        -2.315107        -2.169338         2.609586
 O        -1.111636        -2.482805         1.932151
 C        -1.027438        -1.426797         2.735237
 C        -0.856436         0.058140         2.188802
 H        -1.047976         0.751937        -0.901317
 H        -3.363769         0.873256         2.115940
 H        -3.286793         1.801821         0.403984
 H        -3.340336        -0.722543        -0.421660
 H        -4.227203        -1.269034         2.160025
 H        -3.650227        -2.477735         1.092560
 H        -2.765126        -2.883135         3.312086
 H        -0.480554        -1.655498         3.703142
 H        -1.104901         0.762541         3.001964
 H         0.249621         0.079576         1.827901
