19
Iteration:   378charge 0 multiplicity 1
 O        -0.987396         1.006617        -0.243879
 C        -1.717359         0.436418         0.910566
 C        -3.183967         0.694359         1.342597
 C        -2.852296        -0.452558         0.511585
 C        -2.965171        -1.847386         1.072261
 C        -2.383136        -1.986396         2.514412
 O        -1.108796        -2.483648         2.660959
 C        -1.239094        -1.014986         2.864629
 C        -0.673291        -0.058284         1.878104
 H        -0.324923         1.584100         0.203503
 H        -3.429494         0.525137         2.332906
 H        -3.694250         1.608900         0.963481
 H        -2.984018        -0.441510        -0.621293
 H        -3.945897        -2.367129         0.999016
 H        -2.344198        -2.538617         0.457921
 H        -2.988239        -2.370509         3.272246
 H        -1.037574        -0.830656         3.903298
 H        -0.226147         0.774884         2.327161
 H         0.080731        -0.470669         1.188054
