19
Iteration:  1775
 O        -1.139407         1.135357        -0.214816
 C        -1.569289         0.382853         0.908564
 C        -3.001950         0.899488         1.403653
 C        -2.792900        -0.417009         0.586213
 C        -3.058224        -1.800777         1.159041
 C        -2.471467        -1.957151         2.496529
 O        -1.187041        -2.644935         2.505471
 C        -1.214946        -1.256395         2.783710
 C        -0.537991        -0.174598         1.844774
 H        -1.130476         2.063616         0.187266
 H        -2.899950         0.992958         2.539468
 H        -3.369840         1.799043         1.016620
 H        -3.184514        -0.250423        -0.452156
 H        -4.161768        -1.846649         1.309650
 H        -2.864121        -2.591604         0.480429
 H        -3.160270        -2.030343         3.333850
 H        -1.124992        -1.025883         3.863005
 H        -0.053163         0.587352         2.410593
 H         0.330296        -0.578359         1.291793
