19
Iteration:  1421
 O        -0.932155         0.891668        -0.137868
 C        -1.642121         0.307128         0.979241
 C        -3.116232         0.833401         1.037937
 C        -2.731343        -0.506104         0.548724
 C        -3.289927        -1.614960         1.490927
 C        -2.342266        -2.104984         2.553657
 O        -1.037255        -2.382174         1.961461
 C        -1.073046        -1.241557         2.847972
 C        -0.913823         0.066482         2.259995
 H        -0.048323         1.248466         0.171489
 H        -3.472125         0.927666         2.037781
 H        -3.393600         1.633340         0.241965
 H        -2.620139        -0.671114        -0.523111
 H        -4.276915        -1.224811         2.003660
 H        -3.782528        -2.449687         0.926511
 H        -2.774126        -2.823890         3.313325
 H        -0.459365        -1.487307         3.750182
 H        -1.125388         0.829358         3.073886
 H         0.171459         0.084272         2.012049
