19
Iteration:  3683
 O        -1.053051         1.133405        -0.138065
 C        -1.647813         0.387247         0.813864
 C        -3.011976         0.818483         1.430557
 C        -2.948865        -0.350058         0.625696
 C        -3.061592        -1.756547         1.150657
 C        -2.428310        -1.913479         2.468403
 O        -1.080478        -2.683717         2.446541
 C        -1.146702        -1.176391         2.822312
 C        -0.672626        -0.220395         1.847042
 H        -0.341437         1.596918         0.293251
 H        -3.108216         0.688248         2.553726
 H        -3.477088         1.810055         1.031896
 H        -3.410659        -0.279882        -0.307389
 H        -4.152214        -1.734925         1.184614
 H        -2.780336        -2.578822         0.380194
 H        -3.103398        -2.206342         3.315536
 H        -1.042837        -1.137312         3.924947
 H        -0.255884         0.787410         2.399391
 H         0.221686        -0.519023         1.206900
