19
Iteration:   521charge 0 multiplicity 1
 O        -0.942425         1.024415        -0.222265
 C        -1.653612         0.434240         0.920332
 C        -3.195380         0.873485         1.108569
 C        -2.788324        -0.505596         0.626752
 C        -3.162672        -1.857408         1.268099
 C        -2.376104        -2.083062         2.548840
 O        -0.926626        -2.489110         2.402642
 C        -1.169775        -1.179115         2.858844
 C        -0.830980         0.105048         2.067579
 H        -0.997298         0.448992        -1.046727
 H        -3.543735         0.968786         2.158338
 H        -3.404910         1.617970         0.416184
 H        -2.906961        -0.497028        -0.446661
 H        -4.294339        -1.939157         1.405136
 H        -2.894479        -2.683804         0.543984
 H        -2.896570        -2.552277         3.332155
 H        -0.889761        -1.156214         3.967763
 H        -1.011946         0.739536         2.995179
 H         0.277282         0.135610         1.825448
