19
Iteration:  4464
 O        -0.995192         1.175428        -0.189679
 C        -1.689824         0.410812         0.842915
 C        -2.995996         0.981279         1.434788
 C        -3.001293        -0.388175         0.605613
 C        -3.074991        -1.794713         1.185257
 C        -2.508953        -2.015841         2.588739
 O        -1.019377        -2.636315         2.452194
 C        -1.162440        -1.272266         2.795200
 C        -0.650227        -0.205110         1.808003
 H        -0.326349         1.556145         0.461895
 H        -3.318156         0.932401         2.451928
 H        -3.394105         1.861718         0.839247
 H        -3.424749        -0.383520        -0.409925
 H        -4.193908        -2.018193         1.231103
 H        -2.658533        -2.449282         0.412221
 H        -3.032837        -2.629919         3.261076
 H        -0.958170        -1.006859         3.784181
 H        -0.123564         0.574424         2.416674
 H         0.067817        -0.561672         1.048982
