19
Iteration:  2434charge 0 multiplicity 1
 O        -0.885770         1.016741        -0.124468
 C        -1.657435         0.390944         0.960008
 C        -2.981142         0.941655         1.222496
 C        -2.944894        -0.426266         0.534560
 C        -3.290697        -1.625276         1.491117
 C        -2.302322        -2.115042         2.538262
 O        -1.078635        -2.498528         2.006199
 C        -1.091527        -1.321894         2.823693
 C        -0.776009        -0.070449         2.168284
 H        -0.771796         0.380790        -0.865430
 H        -3.621672         1.130635         2.092558
 H        -3.297370         1.723955         0.569731
 H        -3.321626        -0.458129        -0.472145
 H        -4.209897        -1.494078         2.072900
 H        -3.484837        -2.476357         0.852558
 H        -2.695784        -2.749677         3.237147
 H        -0.563406        -1.293549         3.811892
 H        -0.894208         0.806507         2.835272
 H         0.228743        -0.050488         1.712470
