19
Iteration:  3285
 O        -0.850976         0.754203        -0.043114
 C        -1.740800         0.367122         1.035496
 C        -3.050344         1.016113         1.114079
 C        -2.933416        -0.372288         0.542587
 C        -3.384848        -1.576170         1.485717
 C        -2.228625        -2.136480         2.556305
 O        -0.971340        -2.410745         1.864050
 C        -1.101361        -1.340816         2.818440
 C        -0.771984         0.009274         2.240066
 H        -1.440476         1.169241        -0.678642
 H        -3.499821         1.146008         2.065098
 H        -3.279076         1.938853         0.542360
 H        -2.722652        -0.756198        -0.441622
 H        -4.306148        -1.176999         1.917133
 H        -3.765587        -2.508820         0.894489
 H        -2.559916        -2.922509         3.258850
 H        -0.580876        -1.534921         3.738468
 H        -0.932804         0.741413         3.016140
 H         0.194241        -0.103309         1.853014
