19
Iteration:   503
 O        -0.978316         0.961617        -0.129700
 C        -1.714809         0.405394         0.910909
 C        -3.113746         0.892187         1.123941
 C        -2.896168        -0.564529         0.465360
 C        -3.025983        -1.832086         1.230215
 C        -2.317109        -1.990083         2.588894
 O        -1.051983        -2.535860         2.305815
 C        -1.156611        -1.089569         2.943286
 C        -0.734485         0.121664         2.163744
 H        -1.463883         0.754294        -0.977584
 H        -3.488950         0.819569         2.147207
 H        -3.635750         1.531354         0.349720
 H        -3.137102        -0.569822        -0.606256
 H        -4.054316        -2.120897         1.483812
 H        -2.517180        -2.664404         0.695435
 H        -2.963814        -2.516296         3.415813
 H        -0.946804        -1.227184         4.016931
 H        -0.599065         1.030435         2.699553
 H         0.206728        -0.067325         1.668114
