19
Iteration:   161charge 0 multiplicity 1
 O        -0.964439         0.927430        -0.293248
 C        -1.645993         0.364902         0.827856
 C        -3.196919         0.851695         1.097817
 C        -2.783825        -0.502142         0.554323
 C        -3.103995        -1.804979         1.248131
 C        -2.311893        -2.128533         2.517263
 O        -0.964494        -2.430253         2.398363
 C        -1.256468        -1.147422         3.028585
 C        -0.857604         0.145057         2.132057
 H        -0.309701         1.549693         0.019959
 H        -3.538661         0.864904         2.127680
 H        -3.589065         1.488989         0.393451
 H        -2.950812        -0.523663        -0.628064
 H        -4.123049        -1.761237         1.639859
 H        -3.043169        -2.704959         0.582993
 H        -2.748132        -2.829820         3.235144
 H        -0.863628        -1.176584         4.026744
 H        -0.955531         0.917336         2.933756
 H         0.269432        -0.029617         1.930352
