19
Iteration:     8charge 0 multiplicity 1
 O        -0.829702         0.744600        -0.067475
 C        -1.755892         0.304268         0.994779
 C        -3.159243         0.842106         0.726997
 C        -2.821447        -0.638721         0.578788
 C        -3.248990        -1.723836         1.475835
 C        -2.157958        -2.080500         2.471322
 O        -0.829958        -2.231865         2.020550
 C        -1.208396        -1.151150         2.965970
 C        -1.102162         0.223071         2.332558
 H        -0.062607         0.125348         0.009237
 H        -3.648820         1.093868         1.635714
 H        -3.402952         1.700446         0.066653
 H        -2.727684        -0.942225        -0.600518
 H        -4.002592        -1.389597         2.242857
 H        -3.710411        -2.590846         0.896157
 H        -2.379525        -2.764306         3.325653
 H        -1.041178        -1.140747         4.071685
 H        -1.509362         0.915093         3.064568
 H        -0.097711         0.580843         2.292396
