19
Iteration:  3733charge 0 multiplicity 1
 O        -1.099204         1.220382        -0.172714
 C        -1.647570         0.342749         0.968833
 C        -2.977111         0.847496         1.391540
 C        -2.783254        -0.466469         0.550827
 C        -3.153758        -1.744820         1.256070
 C        -2.378402        -1.974540         2.465336
 O        -1.188471        -2.620910         2.403614
 C        -1.157173        -1.182713         2.782357
 C        -0.548865        -0.231437         1.869103
 H        -1.170089         2.074412         0.327069
 H        -3.365441         0.904318         2.405335
 H        -3.395859         1.530906         0.698153
 H        -2.909780        -0.202986        -0.548057
 H        -4.248165        -1.769957         1.520095
 H        -3.108222        -2.589806         0.618343
 H        -2.997746        -2.329231         3.306173
 H        -1.091583        -1.138856         3.844668
 H        -0.129840         0.590130         2.371952
 H         0.174948        -0.653713         1.174842
