19
Iteration:  2303charge 0 multiplicity 1
 O        -0.829662         0.713455        -0.114933
 C        -1.730421         0.413025         0.950950
 C        -3.014201         1.188622         1.229719
 C        -2.939644        -0.328268         0.663737
 C        -3.279420        -1.576618         1.495490
 C        -2.259092        -2.136808         2.478093
 O        -1.025164        -2.563844         1.893615
 C        -1.016890        -1.318494         2.806975
 C        -0.899781        -0.007567         2.229920
 H        -1.127159         0.499687        -0.983676
 H        -3.227503         1.066338         2.284058
 H        -3.549174         1.846588         0.594692
 H        -3.333357        -0.388707        -0.349036
 H        -4.211664        -1.471322         2.043316
 H        -3.479772        -2.323239         0.774708
 H        -2.685018        -2.823122         3.113642
 H        -0.605657        -1.508043         3.799473
 H        -1.147526         0.793927         2.951464
 H         0.132655         0.194402         1.866234
