19
Iteration:  2520
 O        -0.950727         1.045146        -0.144601
 C        -1.722494         0.390992         0.894455
 C        -3.031745         1.064597         1.291601
 C        -2.949948        -0.335738         0.708992
 C        -3.194756        -1.732259         1.279683
 C        -2.348701        -2.044999         2.533142
 O        -1.024166        -2.729040         2.224745
 C        -1.100588        -1.297948         2.782238
 C        -0.727251        -0.014093         2.019578
 H        -0.811404         0.346689        -0.864906
 H        -3.107705         1.226238         2.342797
 H        -3.192252         1.738931         0.480762
 H        -3.296530        -0.211826        -0.277400
 H        -4.266208        -1.701099         1.586097
 H        -3.250390        -2.510796         0.481780
 H        -2.923722        -2.455945         3.373096
 H        -0.783684        -1.313788         3.823956
 H        -0.710334         0.737618         2.767413
 H         0.251701        -0.189313         1.709455
