19
Iteration:  4814
 O        -0.923596         0.902607        -0.182425
 C        -1.736680         0.379662         0.897115
 C        -3.064423         1.020260         1.237099
 C        -2.970307        -0.402845         0.611476
 C        -3.179188        -1.656524         1.410211
 C        -2.295510        -2.035710         2.556401
 O        -1.013653        -2.610160         2.097933
 C        -0.990426        -1.368922         2.738292
 C        -0.910979        -0.014371         2.129741
 H        -0.417545         1.652711         0.214181
 H        -3.222021         1.127787         2.372040
 H        -3.484136         1.898796         0.695926
 H        -3.201427        -0.284683        -0.450757
 H        -4.166103        -1.539150         1.766893
 H        -3.132694        -2.344356         0.569243
 H        -2.871700        -2.540736         3.376416
 H        -0.405709        -1.355328         3.725785
 H        -1.152500         0.767958         2.902274
 H         0.224071        -0.041843         2.022560
