19
Iteration:  3826
 O        -1.093924         1.005253        -0.263222
 C        -1.592689         0.329758         0.907708
 C        -3.034779         0.834993         1.394106
 C        -2.913794        -0.381859         0.525532
 C        -3.203540        -1.617772         1.226366
 C        -2.344240        -2.087242         2.384076
 O        -1.063052        -2.531774         2.267373
 C        -1.185885        -1.210096         2.952474
 C        -0.605490        -0.092746         2.103329
 H        -0.426236         1.652855         0.043802
 H        -3.048285         0.949387         2.509930
 H        -3.332300         1.794480         1.017713
 H        -3.376686        -0.272561        -0.452822
 H        -4.229992        -1.597305         1.595221
 H        -3.262521        -2.575531         0.561882
 H        -2.916223        -2.703012         3.072375
 H        -0.935829        -1.253122         4.022130
 H        -0.299206         0.728297         2.785995
 H         0.302596        -0.510083         1.664916
