19
Iteration:  4588
 O        -1.160275         0.992543        -0.200124
 C        -1.606006         0.467686         1.073014
 C        -3.093456         0.980346         1.198158
 C        -2.858772        -0.385964         0.566909
 C        -3.220934        -1.631907         1.219011
 C        -2.289877        -2.015734         2.456455
 O        -1.079724        -2.654416         2.303205
 C        -1.031835        -1.319819         2.892481
 C        -0.630344        -0.165653         2.035720
 H        -0.591447         1.777308        -0.182876
 H        -3.521278         1.044580         2.174598
 H        -3.534061         1.849095         0.632334
 H        -3.156605        -0.436267        -0.520514
 H        -4.339588        -1.597649         1.348705
 H        -3.129263        -2.456854         0.440507
 H        -2.754664        -2.602498         3.353637
 H        -0.891654        -1.268230         3.975156
 H        -0.492641         0.641452         2.849482
 H         0.426573        -0.423152         1.797505
