19
Iteration:  3272charge 0 multiplicity 1
 O        -0.868861         0.821029         0.012477
 C        -1.621737         0.405785         1.056426
 C        -3.069659         0.956172         1.093609
 C        -2.848516        -0.533625         0.609642
 C        -3.357105        -1.592934         1.528073
 C        -2.387042        -2.118283         2.468244
 O        -1.057230        -2.429362         1.855690
 C        -1.059630        -1.300009         2.780893
 C        -0.746589         0.081145         2.198149
 H        -1.391949         1.039602        -0.794684
 H        -3.558144         0.917329         2.100803
 H        -3.333203         1.796364         0.348141
 H        -2.967808        -0.580483        -0.476699
 H        -4.089616        -1.255756         2.269854
 H        -3.836289        -2.455532         0.912988
 H        -2.707435        -2.880830         3.210480
 H        -0.412208        -1.570839         3.685497
 H        -0.681395         0.885590         2.973952
 H         0.289161         0.148372         1.872260
