19
Iteration:  2026charge 0 multiplicity 1
 O        -0.881948         0.931901        -0.134891
 C        -1.619495         0.418094         0.951973
 C        -3.046517         0.949021         1.256352
 C        -2.901031        -0.456081         0.639634
 C        -3.383774        -1.695462         1.462627
 C        -2.385576        -2.095998         2.558044
 O        -1.044918        -2.475805         2.051183
 C        -1.137748        -1.280763         2.735956
 C        -0.642229        -0.058425         2.021098
 H        -0.531524         1.663896         0.471601
 H        -3.657566         1.011552         2.208290
 H        -3.377011         1.781403         0.593107
 H        -3.065616        -0.472890        -0.476552
 H        -4.317551        -1.363204         1.998191
 H        -3.558990        -2.462502         0.677478
 H        -2.877043        -2.602632         3.357464
 H        -0.928611        -1.440402         3.828888
 H        -0.209298         0.845330         2.579627
 H         0.157529        -0.534961         1.403638
