19
Iteration:  2687
 O        -1.029262         1.146412        -0.196143
 C        -1.586339         0.420693         0.866119
 C        -2.913500         0.799456         1.502380
 C        -2.967420        -0.388579         0.609692
 C        -3.223107        -1.752811         1.150381
 C        -2.444011        -1.981755         2.536192
 O        -1.111717        -2.516285         2.345790
 C        -1.192339        -1.235748         2.813944
 C        -0.653059        -0.167201         1.891030
 H        -0.300137         0.554454        -0.580837
 H        -2.658378         0.676608         2.644629
 H        -3.447366         1.717687         1.338258
 H        -3.143806         0.011955        -0.472583
 H        -4.323759        -2.029184         1.319372
 H        -2.995760        -2.638084         0.420921
 H        -2.856033        -2.405365         3.423160
 H        -0.845851        -1.113969         3.920062
 H        -0.215516         0.650367         2.446938
 H         0.191957        -0.732611         1.527545
