19
Iteration:  2328charge 0 multiplicity 1
 O        -0.867527         0.692107        -0.182759
 C        -1.630307         0.413316         1.030117
 C        -2.953809         1.066659         1.229624
 C        -2.902004        -0.384069         0.744953
 C        -3.397714        -1.642053         1.471323
 C        -2.355728        -2.156044         2.474458
 O        -0.980358        -2.435148         1.833160
 C        -1.115227        -1.282650         2.808142
 C        -0.787935         0.049075         2.276701
 H        -1.383616         1.110738        -0.873177
 H        -3.316843         1.245720         2.222370
 H        -3.275747         1.627672         0.378254
 H        -3.269360        -0.348318        -0.252899
 H        -4.385726        -1.575164         2.003473
 H        -3.566524        -2.354184         0.649774
 H        -2.667146        -2.945218         3.228575
 H        -0.742593        -1.518402         3.790158
 H        -0.978023         0.882662         2.909139
 H         0.280245         0.078705         1.925416
