19
Iteration:  4103charge 0 multiplicity 1
 O        -0.941804         0.903001        -0.168335
 C        -1.611496         0.443058         0.898863
 C        -2.902783         1.018123         1.161456
 C        -2.911091        -0.392165         0.674712
 C        -3.378231        -1.718599         1.462213
 C        -2.329318        -2.141159         2.475790
 O        -0.916655        -2.501895         2.061230
 C        -1.210357        -1.355514         2.849087
 C        -0.852944        -0.019062         2.098612
 H        -1.043888         1.894861        -0.238174
 H        -3.238884         1.088544         2.191771
 H        -3.199740         1.875603         0.563509
 H        -3.012049        -0.476259        -0.352927
 H        -4.223698        -1.581648         2.118512
 H        -3.555269        -2.540869         0.700620
 H        -2.650893        -2.836835         3.305224
 H        -0.765642        -1.490027         3.838249
 H        -1.036994         0.680315         2.873637
 H         0.227037         0.037795         2.071678
