19
Iteration:  2653
 O        -1.089250         1.049416        -0.177320
 C        -1.666997         0.387260         0.921498
 C        -2.966839         1.020270         1.429593
 C        -2.991647        -0.261416         0.726840
 C        -3.146075        -1.751064         1.103836
 C        -2.356693        -2.064376         2.399115
 O        -1.010847        -2.599803         2.411697
 C        -1.199260        -1.244515         2.854148
 C        -0.630214        -0.223197         1.935626
 H        -0.770306         0.286628        -0.751500
 H        -3.013691         1.373858         2.518026
 H        -3.346550         1.833479         0.783866
 H        -3.236084         0.005197        -0.381398
 H        -4.229558        -1.813637         1.336076
 H        -2.787186        -2.355373         0.193173
 H        -3.091157        -2.491963         3.083295
 H        -1.089439        -1.063991         3.975956
 H        -0.082112         0.508117         2.523976
 H         0.139739        -0.737777         1.350119
