19
Iteration:  4817charge 0 multiplicity 1
 O        -0.919618         0.899759        -0.153938
 C        -1.721403         0.363403         0.886369
 C        -3.087022         1.034341         1.251216
 C        -2.963307        -0.399642         0.587453
 C        -3.172342        -1.667063         1.427137
 C        -2.301344        -2.012352         2.569972
 O        -1.017797        -2.604681         2.107128
 C        -0.980779        -1.367209         2.716988
 C        -0.911327        -0.004641         2.105706
 H        -0.443093         1.596424         0.272154
 H        -3.226663         1.203877         2.353968
 H        -3.378251         1.875690         0.704387
 H        -3.168717        -0.288393        -0.429626
 H        -4.269704        -1.648441         1.792611
 H        -3.195479        -2.382244         0.548835
 H        -2.881241        -2.741179         3.292068
 H        -0.450650        -1.366446         3.694735
 H        -1.126921         0.722386         2.898992
 H         0.194562         0.026362         1.891239
