19
Iteration:  2188
 O        -0.856189         0.883507        -0.118221
 C        -1.650841         0.429517         0.959513
 C        -3.068100         1.134547         1.131792
 C        -2.998774        -0.365779         0.637823
 C        -3.307465        -1.578272         1.536607
 C        -2.246676        -2.143511         2.539962
 O        -1.076572        -2.582431         1.873767
 C        -1.020752        -1.365554         2.874737
 C        -0.820127        -0.020845         2.143532
 H        -0.586533         0.124330        -0.617966
 H        -3.322886         1.246059         2.199880
 H        -3.355625         1.899726         0.497778
 H        -3.212879        -0.503439        -0.375496
 H        -4.204272        -1.452897         2.153086
 H        -3.567875        -2.433611         0.822715
 H        -2.506019        -2.899383         3.380297
 H        -0.484083        -1.503721         3.810049
 H        -1.295740         0.544365         2.948194
 H         0.220505         0.174247         2.012038
