19
Iteration:  4553
 O        -0.913004         1.093629        -0.063534
 C        -1.694546         0.424142         0.847916
 C        -2.983417         0.906754         1.334430
 C        -2.875284        -0.424125         0.552826
 C        -3.258919        -1.780358         1.313078
 C        -2.360809        -2.084598         2.583568
 O        -1.049009        -2.537969         2.268361
 C        -1.180681        -1.199086         2.803637
 C        -0.772953        -0.180196         1.858301
 H        -0.461707         1.927083         0.161840
 H        -3.068170         0.671220         2.446906
 H        -3.362400         1.747450         0.820697
 H        -3.309673        -0.422442        -0.447721
 H        -4.389835        -1.687921         1.461657
 H        -2.986665        -2.611749         0.625774
 H        -2.813929        -2.607984         3.444217
 H        -0.907123        -0.951860         3.787011
 H        -0.459112         0.629148         2.554295
 H         0.072856        -0.443426         1.162307
