19
Iteration:  3635
 O        -1.144134         1.010136        -0.279917
 C        -1.629595         0.484258         0.908684
 C        -2.956248         0.936437         1.486879
 C        -2.895122        -0.332818         0.626038
 C        -3.046433        -1.660264         1.155849
 C        -2.421816        -2.038598         2.406768
 O        -1.036257        -2.634330         2.439086
 C        -1.259056        -1.238053         2.871029
 C        -0.628328        -0.236816         1.972021
 H        -1.026282         1.991931        -0.157586
 H        -3.161815         1.188227         2.500118
 H        -3.468794         1.539895         0.795040
 H        -3.310868        -0.154027        -0.443612
 H        -4.077128        -2.126339         1.139881
 H        -2.529675        -2.272282         0.412630
 H        -3.107057        -2.467067         3.126270
 H        -1.062359        -1.231354         3.927529
 H         0.030686         0.432610         2.508214
 H         0.038136        -0.795427         1.342313
