19
Iteration:  3889
 O        -0.953578         0.980477        -0.090195
 C        -1.705135         0.401263         0.968285
 C        -3.095147         0.986107         1.148553
 C        -2.859049        -0.418502         0.507926
 C        -3.295939        -1.629546         1.411745
 C        -2.258970        -2.068887         2.548349
 O        -1.045126        -2.587860         2.095954
 C        -1.120709        -1.278817         2.897007
 C        -0.729552        -0.119082         2.061577
 H        -0.959167         1.951544         0.064899
 H        -3.549246         1.068452         2.212285
 H        -3.179496         1.815541         0.459863
 H        -3.109368        -0.524474        -0.503349
 H        -4.306906        -1.468989         1.857326
 H        -3.264417        -2.449359         0.766859
 H        -2.768945        -2.756623         3.258952
 H        -0.490479        -1.452867         3.810822
 H        -0.366677         0.669681         2.693447
 H         0.151264        -0.517745         1.580475
