19
Iteration:  4813charge 0 multiplicity 1
 O        -0.925759         0.902996        -0.191511
 C        -1.740010         0.386419         0.900852
 C        -3.056559         1.015169         1.235440
 C        -2.970649        -0.400217         0.621119
 C        -3.182977        -1.652172         1.401980
 C        -2.293954        -2.045777         2.552966
 O        -1.012425        -2.612292         2.094014
 C        -0.995546        -1.368371         2.749845
 C        -0.907049        -0.016637         2.137122
 H        -0.408663         1.672371         0.193752
 H        -3.221289         1.094726         2.348090
 H        -3.516693         1.900182         0.685433
 H        -3.222019        -0.298647        -0.470022
 H        -4.149590        -1.512309         1.764325
 H        -3.113701        -2.352847         0.588655
 H        -2.846727        -2.466447         3.390979
 H        -0.408350        -1.356530         3.719451
 H        -1.152988         0.768174         2.902500
 H         0.215946        -0.042518         2.051552
