19
Iteration:  3052
 O        -0.859578         0.971412        -0.098473
 C        -1.645443         0.420837         0.895944
 C        -3.055357         0.944833         1.220625
 C        -2.905390        -0.527651         0.600067
 C        -3.391040        -1.610096         1.529420
 C        -2.377699        -2.083774         2.545694
 O        -1.046500        -2.458910         1.892859
 C        -1.074054        -1.328833         2.820612
 C        -0.787150        -0.015130         2.088638
 H        -0.011551         0.492085         0.196514
 H        -3.089989         0.988715         2.267531
 H        -3.437183         1.962996         0.931465
 H        -2.929192        -0.660273        -0.503220
 H        -4.266299        -1.355204         2.135209
 H        -3.738397        -2.535582         0.932851
 H        -2.798491        -2.849191         3.297208
 H        -0.541476        -1.479664         3.787799
 H        -0.720734         0.800166         2.870253
 H         0.264786        -0.069730         1.763694
