19
Iteration:  3280
 O        -0.865491         0.768146        -0.012648
 C        -1.694061         0.390719         1.054694
 C        -3.068568         1.004310         1.100965
 C        -2.915387        -0.400925         0.538387
 C        -3.373719        -1.596385         1.471619
 C        -2.294100        -2.141294         2.566080
 O        -0.988377        -2.420155         1.853471
 C        -1.114727        -1.308248         2.800331
 C        -0.739780         0.024837         2.230640
 H        -1.457441         1.126480        -0.707104
 H        -3.446647         0.995345         2.192202
 H        -3.260856         1.871933         0.432526
 H        -2.778079        -0.875934        -0.453366
 H        -4.238078        -1.168661         2.043144
 H        -3.822987        -2.429744         0.991191
 H        -2.596873        -2.954594         3.228788
 H        -0.395932        -1.596712         3.662189
 H        -0.875571         0.852875         2.991259
 H         0.348694         0.025230         1.825935
