19
Iteration:   241
 O        -1.073406         1.270074        -0.247334
 C        -1.672908         0.451475         0.850640
 C        -3.054163         0.762637         1.236612
 C        -2.723986        -0.533769         0.433149
 C        -3.052345        -1.803832         1.237339
 C        -2.304128        -2.144014         2.542170
 O        -0.989534        -2.523259         2.705584
 C        -1.399853        -1.108508         2.880879
 C        -0.755797        -0.100736         1.870693
 H        -0.458507         0.713362        -0.734889
 H        -3.432690         0.561618         2.225743
 H        -3.552387         1.670921         0.742167
 H        -2.841090        -0.553543        -0.584297
 H        -4.155995        -1.792515         1.455799
 H        -3.002498        -2.651218         0.537894
 H        -3.003422        -2.413821         3.383728
 H        -1.425501        -0.823316         3.949727
 H        -0.240898         0.655118         2.577212
 H         0.081840        -0.491695         1.328195
