19
Iteration:   744
 O        -0.843097         0.850201        -0.119284
 C        -1.730075         0.517678         0.959929
 C        -3.145781         0.966522         0.879374
 C        -2.846387        -0.497751         0.602371
 C        -3.314579        -1.679913         1.552937
 C        -2.232015        -2.187275         2.472049
 O        -0.855061        -2.448226         2.105241
 C        -1.091663        -1.310407         2.832960
 C        -1.050755         0.116595         2.213910
 H        -0.036305         0.350229         0.129384
 H        -3.619541         1.221995         1.800822
 H        -3.471907         1.568597         0.038187
 H        -2.962624        -0.791219        -0.450155
 H        -4.086354        -1.222870         2.219801
 H        -3.838581        -2.529340         1.027002
 H        -2.599453        -2.984607         3.162950
 H        -0.669258        -1.234051         3.796317
 H        -1.204478         0.776915         3.121967
 H         0.006351         0.400437         2.026070
