19
Iteration:  1375
 O        -0.870006         0.871468        -0.085074
 C        -1.712429         0.433076         0.941071
 C        -3.103573         0.991169         0.971147
 C        -2.891081        -0.474523         0.609435
 C        -3.257737        -1.606798         1.462140
 C        -2.295381        -2.209469         2.545418
 O        -0.875532        -2.424688         2.020162
 C        -1.125552        -1.307550         2.887699
 C        -0.949202         0.072365         2.176496
 H        -0.056267         0.373638         0.133889
 H        -3.657289         1.199436         1.948758
 H        -3.434296         1.716659         0.179513
 H        -3.169267        -0.695196        -0.413227
 H        -4.282926        -1.382511         2.032004
 H        -3.631829        -2.505111         0.924779
 H        -2.690708        -3.018745         3.295745
 H        -0.770312        -1.369695         3.896269
 H        -1.029263         0.898486         2.883880
 H         0.082875        -0.048218         1.846378
