19
Iteration:  3422charge 0 multiplicity 1
 O        -0.914344         1.026644        -0.141353
 C        -1.701527         0.416563         0.887528
 C        -3.012188         1.005841         1.111961
 C        -2.951775        -0.452232         0.606638
 C        -3.276497        -1.678400         1.493389
 C        -2.256558        -2.172362         2.539679
 O        -1.055300        -2.619833         2.026084
 C        -1.162499        -1.311686         2.866772
 C        -0.756589        -0.021193         2.121066
 H        -0.232318         1.652205         0.219142
 H        -3.198392         1.210477         2.179218
 H        -3.278656         1.784387         0.309879
 H        -3.102631        -0.387215        -0.479756
 H        -4.292641        -1.453582         1.935627
 H        -3.676214        -2.427929         0.849539
 H        -2.656046        -2.591937         3.481188
 H        -0.762106        -1.375054         3.919564
 H        -0.796779         0.686540         2.939777
 H         0.324192         0.036800         1.772457
