19
Iteration:  4278
 O        -1.088263         1.148112        -0.271792
 C        -1.612362         0.381764         0.937740
 C        -2.987716         0.897235         1.399790
 C        -2.861117        -0.441152         0.567168
 C        -3.129181        -1.722269         1.233798
 C        -2.450933        -1.950130         2.582053
 O        -1.166326        -2.711955         2.331851
 C        -1.109629        -1.261049         2.767436
 C        -0.595316        -0.105504         1.970356
 H        -0.628337         1.982189         0.055882
 H        -3.116158         0.945227         2.539367
 H        -3.672173         1.457276         0.815754
 H        -3.348417        -0.337850        -0.447376
 H        -4.210797        -1.918019         1.248516
 H        -2.818013        -2.636450         0.702236
 H        -2.965096        -2.416229         3.429549
 H        -0.637225        -0.998078         3.696455
 H        -0.581171         0.662127         2.810629
 H         0.403444        -0.218662         1.502711
