19
Iteration:  4188charge 0 multiplicity 1
 O        -0.980127         1.016577        -0.334036
 C        -1.677472         0.403242         0.912211
 C        -3.007750         0.940924         1.310914
 C        -2.844396        -0.451261         0.621253
 C        -3.217023        -1.689154         1.379935
 C        -2.372133        -2.029243         2.560952
 O        -1.070409        -2.564252         2.120230
 C        -1.103640        -1.355688         2.813361
 C        -0.734245        -0.047668         2.177142
 H        -0.825226         1.849931         0.132955
 H        -3.261908         0.963350         2.336572
 H        -3.365237         1.735160         0.636100
 H        -3.077778        -0.516192        -0.407218
 H        -4.336046        -1.695362         1.539899
 H        -3.127270        -2.406332         0.610941
 H        -2.889417        -2.457011         3.390780
 H        -0.794633        -1.524297         3.881918
 H        -0.898877         0.739014         3.034273
 H         0.270657        -0.092769         1.762175
