19
Iteration:     4charge 0 multiplicity 1
 O        -0.830223         0.750542        -0.054680
 C        -1.741526         0.326700         0.974625
 C        -3.139152         0.831217         0.740892
 C        -2.811315        -0.640147         0.553294
 C        -3.255006        -1.727957         1.484771
 C        -2.175322        -2.092399         2.498940
 O        -0.846470        -2.224961         2.025546
 C        -1.185958        -1.159752         2.943060
 C        -1.121656         0.235429         2.339873
 H        -0.154485         0.041596        -0.116514
 H        -3.712263         1.132701         1.681058
 H        -3.382263         1.583148        -0.029835
 H        -2.755269        -0.894634        -0.425206
 H        -4.085542        -1.425282         2.144541
 H        -3.598101        -2.577105         0.927826
 H        -2.418575        -2.829290         3.273315
 H        -0.866249        -1.191207         3.999347
 H        -1.590649         0.947286         3.094735
 H        -0.036888         0.622332         2.301364
