19
Iteration:   667
 O        -0.674654         0.729824        -0.083439
 C        -1.757459         0.481029         0.989561
 C        -3.211037         0.878901         0.987417
 C        -2.911223        -0.560275         0.612313
 C        -3.260653        -1.686511         1.492582
 C        -2.246064        -2.153864         2.384903
 O        -0.849777        -2.284252         2.014501
 C        -1.202065        -1.176017         2.993523
 C        -1.006094         0.078053         2.221115
 H        -0.990822         1.066414        -0.908198
 H        -3.693653         1.217866         1.952971
 H        -3.480316         1.430032         0.153390
 H        -2.756685        -1.019602        -0.381891
 H        -4.118452        -1.383619         2.196323
 H        -3.647518        -2.543173         0.824311
 H        -2.655293        -2.871892         3.175660
 H        -0.732964        -1.204243         3.967931
 H        -1.010193         0.935127         2.977861
 H         0.030790         0.001361         1.784824
