19
Iteration:   170charge 0 multiplicity 1
 O        -0.910363         0.855206        -0.249082
 C        -1.696621         0.436765         0.855038
 C        -3.181153         0.833125         1.142708
 C        -2.805405        -0.510892         0.522729
 C        -3.084248        -1.843969         1.215550
 C        -2.309441        -2.026743         2.558485
 O        -1.001281        -2.426682         2.384639
 C        -1.172195        -1.148457         2.992430
 C        -0.834963         0.080654         2.112323
 H        -0.614854         1.697457         0.099671
 H        -3.586288         0.775742         2.177113
 H        -3.826934         1.498099         0.566535
 H        -3.252352        -0.574099        -0.555442
 H        -4.155218        -1.900176         1.208367
 H        -2.856142        -2.654584         0.484483
 H        -2.928759        -2.624800         3.226560
 H        -1.027927        -1.070753         4.085383
 H        -1.027600         0.988116         2.693581
 H         0.283372         0.250449         1.873055
