19
Iteration:  2416
 O        -1.003792         1.056978        -0.101386
 C        -1.700591         0.375313         0.888533
 C        -3.037520         1.025307         1.052049
 C        -2.851426        -0.430334         0.687320
 C        -3.316510        -1.596805         1.510357
 C        -2.345559        -2.055671         2.521630
 O        -1.027524        -2.640688         2.020334
 C        -1.037789        -1.418968         2.805796
 C        -0.790882        -0.005159         2.160715
 H        -0.352021         0.364205        -0.383081
 H        -3.187128         1.234791         2.097581
 H        -3.281741         1.855532         0.341999
 H        -2.863639        -0.477293        -0.425278
 H        -4.270030        -1.294768         1.978309
 H        -3.433364        -2.473976         0.866300
 H        -2.733722        -2.670666         3.400491
 H        -0.515061        -1.649280         3.749878
 H        -0.852589         0.794456         2.978046
 H         0.351522         0.024389         1.986784
