19
Iteration:  1973charge 0 multiplicity 1
 O        -1.085355         0.955114        -0.276971
 C        -1.577513         0.488118         0.949584
 C        -2.923811         0.972986         1.368948
 C        -2.922587        -0.364475         0.671838
 C        -3.313846        -1.675037         1.228999
 C        -2.362229        -2.077123         2.445047
 O        -1.041721        -2.644806         2.271348
 C        -1.106977        -1.254955         2.805535
 C        -0.694717        -0.043288         2.086504
 H        -0.446682         0.224642        -0.448745
 H        -3.018604         1.002777         2.496687
 H        -3.300613         1.969052         0.956996
 H        -3.209211        -0.158905        -0.360285
 H        -4.421249        -1.809571         1.432738
 H        -3.124181        -2.341925         0.403492
 H        -2.861159        -2.637943         3.181811
 H        -0.952812        -1.318115         3.887992
 H        -0.781868         0.683867         2.862065
 H         0.370463        -0.041918         1.814443
