19
Iteration:   834charge 0 multiplicity 1
 O        -0.898896         0.762951        -0.135369
 C        -1.749838         0.314706         0.911833
 C        -3.088557         1.040182         1.052373
 C        -2.914238        -0.486625         0.615102
 C        -3.270965        -1.773041         1.379300
 C        -2.297034        -2.010399         2.587911
 O        -0.921149        -2.448827         2.072275
 C        -1.043417        -1.243766         2.828872
 C        -0.922360         0.109277         2.217546
 H        -0.216296         1.276561         0.278787
 H        -3.525655         1.154859         2.065233
 H        -3.241213         1.875061         0.407499
 H        -2.943317        -0.576811        -0.463245
 H        -4.371874        -1.663893         1.680546
 H        -3.212905        -2.627779         0.688501
 H        -2.777955        -2.766938         3.251429
 H        -0.554818        -1.246999         3.698944
 H        -1.328222         0.857935         2.936204
 H         0.137173         0.372045         2.160821
