19
Iteration:  4443
 O        -0.983835         1.144084        -0.070245
 C        -1.668705         0.378756         0.863905
 C        -3.009201         0.840057         1.480843
 C        -3.013000        -0.409152         0.523049
 C        -3.105741        -1.755229         1.197462
 C        -2.359684        -1.992506         2.418886
 O        -1.058008        -2.579073         2.452834
 C        -1.208980        -1.104056         2.840013
 C        -0.714858        -0.290843         1.776956
 H        -0.223727         1.607565         0.231933
 H        -2.910461         0.890744         2.537328
 H        -3.492545         1.811976         1.124066
 H        -3.276235        -0.235845        -0.515645
 H        -4.182566        -1.959581         1.458041
 H        -2.876439        -2.566101         0.491077
 H        -3.016299        -2.172382         3.261973
 H        -0.857908        -1.045849         3.786320
 H        -0.066870         0.601629         2.054054
 H        -0.068899        -0.884623         1.061674
