19
Iteration:  2556charge 0 multiplicity 1
 O        -1.061929         1.172043        -0.150763
 C        -1.600572         0.306685         0.934235
 C        -3.032430         0.859364         1.336275
 C        -2.825310        -0.459080         0.552964
 C        -3.265083        -1.660451         1.323160
 C        -2.367698        -1.988044         2.566727
 O        -1.091865        -2.539622         2.177079
 C        -1.164467        -1.303517         2.865856
 C        -0.651163        -0.162830         1.953240
 H        -0.086961         0.998809        -0.311118
 H        -3.343223         1.149366         2.338415
 H        -3.476259         1.757033         0.827200
 H        -3.125010        -0.345082        -0.520341
 H        -4.217589        -1.297700         1.764870
 H        -3.311725        -2.586930         0.762960
 H        -2.811545        -2.526349         3.347873
 H        -0.873828        -1.322019         3.974761
 H        -0.162829         0.666236         2.482159
 H         0.147237        -0.623327         1.339386
