19
Iteration:   453charge 0 multiplicity 1
 O        -0.941248         1.142983        -0.214911
 C        -1.624327         0.503491         0.838204
 C        -3.049410         0.713533         1.214722
 C        -2.807345        -0.635211         0.536219
 C        -3.206781        -1.895141         1.245684
 C        -2.297958        -2.055720         2.458402
 O        -0.967266        -2.522830         2.552782
 C        -1.339251        -1.022992         2.924570
 C        -0.763239        -0.032574         1.947563
 H        -1.322004         2.023740        -0.403980
 H        -3.142182         0.794224         2.260704
 H        -3.516443         1.588460         0.662189
 H        -3.113408        -0.668644        -0.582376
 H        -4.238416        -1.859012         1.709177
 H        -3.179708        -2.813577         0.646188
 H        -2.874175        -2.445531         3.238797
 H        -1.345018        -0.894814         3.970789
 H        -0.431336         0.975077         2.441847
 H         0.171355        -0.435672         1.491717
