19
Iteration:  2583
 O        -1.085061         1.190230        -0.066803
 C        -1.549303         0.330486         0.977807
 C        -2.942020         0.763474         1.335611
 C        -2.906294        -0.509913         0.481939
 C        -3.342007        -1.727721         1.277692
 C        -2.423718        -1.938438         2.579319
 O        -1.129801        -2.516377         2.221199
 C        -1.163982        -1.212537         2.775207
 C        -0.542806        -0.125048         1.905792
 H        -0.201769         0.813109        -0.352046
 H        -3.286981         0.704978         2.374480
 H        -3.202408         1.807633         1.170966
 H        -3.086879        -0.399155        -0.557041
 H        -4.259622        -1.393134         1.706342
 H        -3.418769        -2.676485         0.722192
 H        -2.814192        -2.472847         3.600749
 H        -0.759841        -1.234449         3.740283
 H        -0.130469         0.714050         2.586154
 H         0.432523        -0.510431         1.353383
