19
Iteration:  2631charge 0 multiplicity 1
 O        -1.028008         1.128622        -0.175247
 C        -1.651865         0.451716         0.889789
 C        -2.951071         1.111945         1.393279
 C        -2.966660        -0.340327         0.575492
 C        -3.143278        -1.757630         1.242578
 C        -2.382903        -2.092546         2.530794
 O        -1.039224        -2.677028         2.389667
 C        -1.175249        -1.359995         2.819200
 C        -0.695302        -0.133380         1.913539
 H        -1.093668         0.439615        -0.821467
 H        -3.394221         1.059315         2.452797
 H        -3.265445         2.099421         0.920744
 H        -3.334213        -0.104893        -0.486096
 H        -4.235132        -2.039943         1.315687
 H        -2.556897        -2.387263         0.466410
 H        -3.042246        -2.512352         3.330511
 H        -0.940233        -1.254476         3.937254
 H        -0.212147         0.655312         2.459317
 H         0.148730        -0.642094         1.444544
