19
Iteration:  1223
 O        -1.036869         0.965550        -0.165989
 C        -1.598914         0.381492         0.989904
 C        -3.183270         0.788224         1.214377
 C        -2.755408        -0.507310         0.558650
 C        -3.195812        -1.798245         1.242373
 C        -2.413363        -1.931644         2.561958
 O        -1.066793        -2.447501         2.278529
 C        -1.194029        -1.176700         2.768430
 C        -0.630208        -0.012684         2.080791
 H        -0.483453         1.702855         0.060045
 H        -3.463230         0.740156         2.267185
 H        -3.414630         1.530087         0.501803
 H        -3.089948        -0.540841        -0.494630
 H        -4.239761        -1.900416         1.575603
 H        -2.884188        -2.631996         0.585990
 H        -2.902792        -2.556169         3.345486
 H        -0.806374        -1.141768         3.817982
 H        -0.350759         0.841642         2.813500
 H         0.343620        -0.157461         1.546509
