19
Iteration:   281charge 0 multiplicity 1
 O        -1.078119         1.165897        -0.113122
 C        -1.729508         0.337543         0.869464
 C        -3.117785         0.698650         1.239481
 C        -2.898681        -0.532601         0.376019
 C        -2.996181        -1.878113         1.203639
 C        -2.406450        -1.815408         2.557673
 O        -1.105488        -2.500630         2.576840
 C        -1.195391        -1.040257         2.881622
 C        -0.605590        -0.180804         1.851893
 H        -0.386564         1.606641         0.466464
 H        -3.491681         0.702180         2.220192
 H        -3.379812         1.580934         0.676576
 H        -2.961979        -0.684660        -0.778421
 H        -3.874162        -2.487842         1.229645
 H        -2.258311        -2.562513         0.719243
 H        -3.011172        -2.009814         3.425452
 H        -0.972907        -0.728510         3.885288
 H        -0.259300         0.730698         2.302980
 H         0.318158        -0.761339         1.501315
