19
Iteration:  4469charge 0 multiplicity 1
 O        -1.009042         1.182300        -0.217727
 C        -1.673989         0.415819         0.877718
 C        -3.029674         0.985540         1.409335
 C        -3.024147        -0.389333         0.609686
 C        -3.071097        -1.778260         1.221927
 C        -2.518118        -2.023547         2.550399
 O        -1.019400        -2.656513         2.460717
 C        -1.193884        -1.303840         2.771146
 C        -0.608372        -0.184131         1.848264
 H        -0.311221         1.750876         0.134128
 H        -3.258296         1.050620         2.522588
 H        -3.338186         1.889261         0.949797
 H        -3.157468        -0.374639        -0.487196
 H        -4.090594        -2.104840         1.187282
 H        -2.641328        -2.508279         0.498245
 H        -3.123156        -2.622563         3.326531
 H        -0.815399        -1.129034         3.851603
 H        -0.112397         0.659283         2.368515
 H         0.129401        -0.598527         1.122646
