19
Iteration:  1100charge 0 multiplicity 1
 O        -1.022111         1.212962        -0.094719
 C        -1.740372         0.386692         0.850588
 C        -3.030584         0.748329         1.391430
 C        -2.865720        -0.499643         0.475505
 C        -3.074470        -1.925052         1.125534
 C        -2.401299        -1.878457         2.430871
 O        -1.095418        -2.493216         2.701108
 C        -1.163639        -1.084436         2.826031
 C        -0.660903        -0.253938         1.723280
 H        -0.627593         1.927112         0.415849
 H        -3.157047         0.475410         2.475157
 H        -3.596768         1.505388         0.898477
 H        -3.058737        -0.336737        -0.573188
 H        -4.162298        -2.091240         1.363198
 H        -2.662118        -2.757246         0.562333
 H        -3.110408        -2.171352         3.203975
 H        -1.096969        -0.662622         3.758308
 H         0.015278         0.586241         2.146414
 H        -0.020097        -0.815760         0.999035
