19
Iteration:  2857
 O        -0.925951         1.004776        -0.095916
 C        -1.639870         0.392934         0.908837
 C        -3.046864         1.034845         1.251812
 C        -2.981629        -0.312519         0.647683
 C        -3.252937        -1.656248         1.379864
 C        -2.309211        -2.160571         2.478032
 O        -1.025899        -2.617122         2.172005
 C        -1.141583        -1.232024         2.844803
 C        -0.740475        -0.111076         2.029573
 H        -0.852329         0.323729        -0.838132
 H        -3.203753         1.267541         2.320282
 H        -3.182189         1.976418         0.773191
 H        -3.410235        -0.348560        -0.405638
 H        -4.421573        -1.768656         1.482233
 H        -3.229163        -2.307775         0.457440
 H        -2.714827        -2.876553         3.316732
 H        -0.721991        -1.345544         3.809022
 H        -0.542572         0.859446         2.563089
 H         0.264256        -0.352838         1.640788
