19
Iteration:  3783charge 0 multiplicity 1
 O        -0.950915         0.996418        -0.145522
 C        -1.690104         0.462095         0.871017
 C        -3.010840         0.981219         1.407060
 C        -2.950611        -0.379809         0.660006
 C        -3.068441        -1.800260         1.167608
 C        -2.358888        -2.047285         2.507145
 O        -1.113981        -2.642259         2.345851
 C        -1.194295        -1.221373         2.823918
 C        -0.656956        -0.093964         1.897154
 H        -1.121427         1.968318        -0.154582
 H        -3.276401         1.119955         2.455915
 H        -3.386357         1.781900         0.812315
 H        -3.564138        -0.247571        -0.219483
 H        -4.095286        -1.989530         1.389022
 H        -2.915195        -2.519279         0.298231
 H        -2.990744        -2.438025         3.301595
 H        -0.887772        -1.384999         3.829704
 H        -0.408924         0.855132         2.486047
 H         0.252371        -0.534986         1.411153
