19
Iteration:  3371
 O        -0.991983         0.779094        -0.092452
 C        -1.651305         0.299677         1.043567
 C        -3.048827         0.972988         1.138620
 C        -2.884197        -0.484586         0.581195
 C        -3.354918        -1.585820         1.471772
 C        -2.302942        -2.001924         2.418636
 O        -1.034492        -2.453456         1.912949
 C        -1.053233        -1.301923         2.848947
 C        -0.753658         0.052440         2.228975
 H        -0.407694         1.549601         0.141975
 H        -3.713233         0.914612         1.993553
 H        -3.058702         1.860164         0.461874
 H        -2.857028        -0.526943        -0.467943
 H        -4.264318        -1.302900         1.984757
 H        -3.622142        -2.559981         0.897901
 H        -2.721960        -2.762474         3.132638
 H        -0.468462        -1.601328         3.759889
 H        -0.782604         0.856979         3.039088
 H         0.309783         0.037375         1.955134
