19
Iteration:  3567
 O        -1.101023         1.187287        -0.122227
 C        -1.629494         0.415589         0.977634
 C        -3.042510         0.908371         1.270654
 C        -2.861835        -0.452317         0.449137
 C        -3.206609        -1.724601         1.282586
 C        -2.386128        -2.015819         2.602016
 O        -1.185406        -2.615216         2.318483
 C        -1.081347        -1.244325         2.841301
 C        -0.545045        -0.174513         1.919811
 H        -0.393844         1.720030         0.240210
 H        -3.399832         0.662475         2.263313
 H        -3.529889         1.778818         0.777416
 H        -3.143560        -0.392616        -0.665706
 H        -4.375024        -1.781928         1.203860
 H        -2.948614        -2.663845         0.803562
 H        -2.837370        -2.555640         3.451207
 H        -0.549020        -1.259732         3.882778
 H         0.038658         0.632092         2.380978
 H         0.149970        -0.744684         1.226961
