19
Iteration:   554charge 0 multiplicity 1
 O        -0.975735         1.007063        -0.184881
 C        -1.672217         0.267908         0.865332
 C        -3.112267         0.816080         1.046808
 C        -2.922147        -0.505878         0.486491
 C        -3.216770        -1.735020         1.321299
 C        -2.243366        -2.177503         2.521905
 O        -0.899617        -2.366910         2.284444
 C        -1.251270        -1.131815         2.995499
 C        -0.861589         0.058288         2.160917
 H        -0.024008         0.856856        -0.236163
 H        -3.469189         0.810322         2.092350
 H        -3.128527         1.794129         0.580376
 H        -2.994529        -0.562685        -0.570713
 H        -4.075847        -1.605734         2.043516
 H        -3.350866        -2.695147         0.754213
 H        -2.804258        -2.859749         3.130606
 H        -0.852486        -1.099172         4.089420
 H        -0.789838         1.087623         2.745410
 H         0.251577         0.021677         1.813681
