19
Iteration:  2561
 O        -1.075566         1.171463        -0.117909
 C        -1.587499         0.261956         0.912026
 C        -3.026360         0.848000         1.361574
 C        -2.797735        -0.485191         0.541886
 C        -3.271658        -1.624264         1.359227
 C        -2.402667        -1.971281         2.486039
 O        -1.114012        -2.525932         2.175283
 C        -1.148181        -1.266040         2.876464
 C        -0.644495        -0.179765         1.965866
 H        -0.135305         1.097826        -0.305889
 H        -3.307538         1.012550         2.447265
 H        -3.423608         1.609324         0.726864
 H        -3.042394        -0.389555        -0.501073
 H        -4.261231        -1.397445         1.751675
 H        -3.284134        -2.597122         0.811812
 H        -2.730825        -2.570137         3.459630
 H        -0.925280        -1.203408         3.900247
 H        -0.093785         0.741946         2.347980
 H         0.175196        -0.538235         1.224706
