19
Iteration:   901charge 0 multiplicity 1
 O        -0.926255         0.983441        -0.190500
 C        -1.620216         0.319542         0.899838
 C        -3.012429         0.813445         1.226891
 C        -2.802273        -0.514621         0.525404
 C        -3.256304        -1.783280         1.344922
 C        -2.324606        -2.019336         2.518565
 O        -1.014944        -2.491840         2.194279
 C        -1.249210        -1.145627         2.944977
 C        -0.772531         0.067985         2.084196
 H        -1.384908         1.836980        -0.389101
 H        -3.330416         0.979033         2.295035
 H        -3.488825         1.532404         0.531750
 H        -3.170732        -0.589135        -0.502589
 H        -4.313694        -1.590448         1.743636
 H        -3.411355        -2.666570         0.725360
 H        -2.703969        -2.667032         3.334449
 H        -0.736839        -1.134416         3.824992
 H        -0.775311         0.933806         2.783480
 H         0.238886        -0.268827         1.869908
