19
Iteration:  1694
 O        -0.996222         1.194402        -0.108148
 C        -1.624476         0.384147         0.844442
 C        -2.960746         0.951906         1.355207
 C        -2.837822        -0.394492         0.504402
 C        -3.204441        -1.796996         1.191164
 C        -2.365416        -2.055523         2.522804
 O        -1.053132        -2.625761         2.471541
 C        -1.245937        -1.171449         2.855939
 C        -0.671673        -0.184781         1.888243
 H        -1.411832         1.040481        -0.997467
 H        -3.061131         0.847596         2.418699
 H        -3.633221         1.740072         0.901589
 H        -3.302309        -0.308082        -0.485297
 H        -4.273868        -1.880442         1.453340
 H        -2.885473        -2.623655         0.465229
 H        -3.109715        -2.374250         3.364649
 H        -1.005786        -1.016788         3.920492
 H        -0.250877         0.676075         2.479858
 H         0.059831        -0.894984         1.546530
