19
Iteration:  3438
 O        -0.947903         0.934180        -0.164179
 C        -1.631453         0.368209         0.965111
 C        -3.001584         1.044534         1.200524
 C        -2.910570        -0.389443         0.587222
 C        -3.331193        -1.654374         1.432772
 C        -2.407206        -2.055740         2.505197
 O        -0.950279        -2.585096         2.143012
 C        -1.046225        -1.367526         2.771125
 C        -0.839672        -0.047294         2.090211
 H        -0.678947         1.785582         0.234592
 H        -3.485586         1.175743         2.173474
 H        -3.311619         1.795025         0.547989
 H        -3.157707        -0.525541        -0.505306
 H        -4.294343        -1.472335         1.882902
 H        -3.389913        -2.467854         0.618041
 H        -2.712804        -2.864372         3.190345
 H        -0.581610        -1.395996         3.748819
 H        -0.789587         0.767623         2.891853
 H         0.195219        -0.079492         1.742369
