19
Iteration:  2508charge 0 multiplicity 1
 O        -0.963643         0.949563        -0.181246
 C        -1.632228         0.429871         0.909529
 C        -2.954100         1.043644         1.334183
 C        -2.982479        -0.344390         0.645087
 C        -3.177611        -1.690029         1.284007
 C        -2.335699        -2.025072         2.459403
 O        -1.029284        -2.612555         2.192789
 C        -1.120926        -1.325140         2.845061
 C        -0.794044        -0.096598         2.096156
 H        -1.194876         0.435600        -0.966587
 H        -3.313940         1.374950         2.328999
 H        -3.408302         1.828645         0.783355
 H        -3.537293        -0.372866        -0.270143
 H        -4.211145        -1.759199         1.689215
 H        -2.947541        -2.522925         0.542665
 H        -2.854950        -2.556088         3.347318
 H        -0.612353        -1.324938         3.782516
 H        -0.836474         0.707649         2.805308
 H         0.178443        -0.019924         1.709849
