19
Iteration:  2974charge 0 multiplicity 1
 O        -0.887080         0.883489        -0.124468
 C        -1.611668         0.411066         0.873947
 C        -3.023249         1.094135         1.276407
 C        -2.958084        -0.332593         0.718665
 C        -3.331771        -1.623629         1.383589
 C        -2.265001        -2.130054         2.448184
 O        -0.934730        -2.582569         2.075809
 C        -1.122192        -1.354896         2.834938
 C        -0.856645        -0.009156         2.102079
 H        -0.945042         0.205093        -0.832390
 H        -3.384913         1.309004         2.316809
 H        -3.585232         1.756585         0.621518
 H        -3.245735        -0.332114        -0.406905
 H        -4.200490        -1.624302         2.079124
 H        -3.623270        -2.339554         0.551328
 H        -2.901747        -2.886193         3.023634
 H        -0.840337        -1.192050         3.945286
 H        -0.847360         0.726964         2.950360
 H         0.163367        -0.005476         1.692114
