19
Iteration:   851charge 0 multiplicity 1
 O        -0.925493         0.750301        -0.161974
 C        -1.742855         0.367434         0.940013
 C        -3.098794         0.963257         1.039867
 C        -2.972253        -0.366856         0.511384
 C        -3.147276        -1.593501         1.456473
 C        -2.250924        -2.119249         2.482043
 O        -0.881340        -2.431890         2.122142
 C        -1.135136        -1.291330         2.962928
 C        -0.927901         0.001532         2.197600
 H        -0.508764         1.595358        -0.002234
 H        -3.496060         1.185179         2.002301
 H        -3.404582         1.661571         0.213507
 H        -3.285309        -0.571500        -0.532207
 H        -4.173617        -1.672151         1.788193
 H        -3.107925        -2.444900         0.730862
 H        -2.655727        -2.743982         3.285668
 H        -0.821272        -1.301161         4.150126
 H        -1.024521         0.803322         2.963955
 H         0.098681        -0.056264         1.766623
