19
Iteration:  2011
 O        -0.936450         0.947563        -0.148538
 C        -1.670662         0.351075         0.970753
 C        -2.986344         0.930943         1.287768
 C        -2.912762        -0.398819         0.645305
 C        -3.328053        -1.682251         1.378970
 C        -2.355978        -2.030581         2.498633
 O        -1.090632        -2.457312         2.046848
 C        -1.173246        -1.266633         2.890777
 C        -0.696266        -0.100417         1.995170
 H        -0.088439         1.336124        -0.001944
 H        -3.059689         1.014113         2.328312
 H        -3.347243         1.724004         0.649327
 H        -3.228230        -0.520012        -0.435016
 H        -4.327387        -1.600795         1.769315
 H        -3.305731        -2.655294         0.793238
 H        -2.652784        -2.788219         3.321361
 H        -0.562466        -1.210334         3.779108
 H        -0.364536         0.706065         2.721488
 H         0.244298        -0.395496         1.505157
