19
Iteration:  3550
 O        -1.126357         1.118779        -0.119172
 C        -1.667501         0.424118         0.983074
 C        -3.071609         0.898544         1.246825
 C        -2.757651        -0.387540         0.586006
 C        -3.141389        -1.683380         1.314411
 C        -2.376368        -1.947537         2.520539
 O        -1.108947        -2.680787         2.317708
 C        -1.124059        -1.347815         2.832686
 C        -0.645448        -0.172078         1.857526
 H        -0.690017         1.907850         0.197617
 H        -3.538679         0.964566         2.216798
 H        -3.144974         1.706168         0.516751
 H        -2.765484        -0.537664        -0.516229
 H        -4.120648        -1.540865         1.667764
 H        -3.107326        -2.468531         0.522889
 H        -3.035493        -2.190157         3.353651
 H        -0.827173        -1.187315         3.817549
 H        -0.285222         0.613991         2.582345
 H         0.085029        -0.601879         1.193921
