19
Iteration:  2452charge 0 multiplicity 1
 O        -0.871317         0.901091        -0.080921
 C        -1.608587         0.318384         0.949453
 C        -3.054237         0.915474         1.298400
 C        -2.901927        -0.432637         0.654894
 C        -3.388569        -1.663115         1.391845
 C        -2.329188        -2.061700         2.475295
 O        -0.993741        -2.420544         1.984666
 C        -1.175168        -1.263043         2.855541
 C        -0.719369         0.040215         2.078238
 H        -0.942663         0.544713        -0.974696
 H        -3.037178         0.905805         2.423046
 H        -3.402594         1.832842         0.834618
 H        -3.144923        -0.595383        -0.401733
 H        -4.388287        -1.417689         1.819701
 H        -3.666396        -2.527750         0.703662
 H        -2.810625        -2.792014         3.232839
 H        -0.833625        -1.414616         3.882032
 H        -0.633600         0.872841         2.753096
 H         0.236134        -0.243438         1.639059
