19
Iteration:  2817charge 0 multiplicity 1
 O        -1.075136         0.949165        -0.240277
 C        -1.623735         0.360082         0.954240
 C        -2.909313         0.869358         1.473965
 C        -2.838888        -0.355983         0.634303
 C        -3.237675        -1.660047         1.195254
 C        -2.418376        -2.059894         2.466334
 O        -1.085063        -2.517768         2.153863
 C        -1.227888        -1.238460         2.900249
 C        -0.652952         0.015230         2.034089
 H        -0.839466         0.251072        -0.827446
 H        -2.939518         0.705184         2.548392
 H        -3.171354         1.882617         0.999913
 H        -3.073415        -0.141541        -0.409969
 H        -4.268560        -1.772285         1.456152
 H        -2.888091        -2.515473         0.666022
 H        -2.926766        -2.580040         3.279506
 H        -0.844992        -1.268941         3.965349
 H        -0.585914         0.733144         2.852022
 H         0.403091        -0.262299         1.764477
