19
Iteration:  1634charge 0 multiplicity 1
 O        -0.941554         0.938087        -0.150113
 C        -1.675768         0.351223         0.884625
 C        -3.055753         0.906976         1.362507
 C        -2.884761        -0.408185         0.591783
 C        -3.107189        -1.788626         1.233174
 C        -2.440413        -2.047989         2.485716
 O        -1.102979        -2.460931         2.316491
 C        -1.189206        -1.184724         2.797401
 C        -0.685403        -0.092437         2.016534
 H        -0.908964         1.936323        -0.086852
 H        -3.113201         1.040437         2.411727
 H        -3.298161         1.778033         0.724890
 H        -3.310150        -0.234712        -0.378711
 H        -4.164426        -2.054120         1.443585
 H        -2.835813        -2.541577         0.518488
 H        -2.835361        -2.503919         3.273823
 H        -0.895222        -1.089413         3.850054
 H        -0.272407         0.804084         2.443840
 H         0.207814        -0.517772         1.497183
