19
Iteration:  2366charge 0 multiplicity 1
 O        -0.861565         0.789430        -0.113215
 C        -1.655786         0.318162         0.939746
 C        -3.010161         0.954442         1.220236
 C        -2.874175        -0.441665         0.631326
 C        -3.403967        -1.499159         1.548134
 C        -2.291564        -2.108168         2.517264
 O        -1.002875        -2.408661         1.887498
 C        -1.103406        -1.340771         2.802007
 C        -0.835121        -0.014619         2.137383
 H        -0.648886         1.705435         0.083262
 H        -3.775273         0.968187         2.054169
 H        -3.427966         1.654530         0.447154
 H        -3.266948        -0.459062        -0.421540
 H        -4.340033        -1.066927         1.910970
 H        -3.623014        -2.403606         0.899875
 H        -2.546535        -2.916971         3.243357
 H        -0.580376        -1.443129         3.789513
 H        -0.660636         0.657223         3.026099
 H         0.201970        -0.121056         1.832387
