19
Iteration:  3236charge 0 multiplicity 1
 O        -0.803643         1.028387        -0.029242
 C        -1.668506         0.413371         0.894545
 C        -2.988240         0.965730         1.052552
 C        -2.874173        -0.466480         0.578036
 C        -3.328994        -1.644726         1.619744
 C        -2.333871        -2.151437         2.625664
 O        -1.093993        -2.480144         1.905337
 C        -1.053387        -1.432896         2.734996
 C        -0.840874         0.059416         2.188641
 H        -1.090592         0.760698        -0.926624
 H        -3.440156         0.897028         2.126078
 H        -3.355755         1.846215         0.519389
 H        -3.285752        -0.659897        -0.430523
 H        -4.226267        -1.298048         2.187548
 H        -3.665908        -2.494798         1.086520
 H        -2.837013        -2.826130         3.292383
 H        -0.399569        -1.598449         3.705021
 H        -1.138790         0.760448         3.007144
 H         0.272647         0.021590         1.896674
