19
Iteration:  4397charge 0 multiplicity 1
 O        -1.237116         1.198544        -0.246048
 C        -1.624143         0.425261         0.890827
 C        -2.867233         0.868546         1.436087
 C        -2.816818        -0.442855         0.592870
 C        -3.021901        -1.778421         1.157988
 C        -2.419678        -1.900694         2.501977
 O        -1.251349        -2.701762         2.483586
 C        -1.145840        -1.276359         2.811457
 C        -0.542212        -0.164579         1.862581
 H        -1.054945         2.045654         0.181842
 H        -3.141731         0.560653         2.462897
 H        -3.234184         1.864632         1.181384
 H        -3.197610        -0.152674        -0.429276
 H        -4.164978        -1.902713         1.188481
 H        -2.695379        -2.591485         0.501071
 H        -2.985068        -2.275591         3.298156
 H        -1.228948        -1.155364         3.911895
 H        -0.034095         0.698808         2.400571
 H         0.200141        -0.722467         1.276994
