19
Iteration:  2441
 O        -0.845258         0.994795        -0.105953
 C        -1.686927         0.329346         0.905720
 C        -2.998341         0.936066         1.268654
 C        -2.933288        -0.428766         0.569528
 C        -3.336518        -1.635373         1.490859
 C        -2.349628        -2.117590         2.477574
 O        -1.036153        -2.458987         2.016541
 C        -1.125886        -1.264586         2.821742
 C        -0.750559        -0.016270         2.140111
 H        -1.050595         0.272375        -0.784847
 H        -3.576287         0.833909         2.243808
 H        -3.283433         1.739920         0.584876
 H        -3.199497        -0.242578        -0.482783
 H        -4.292736        -1.429256         2.024868
 H        -3.380383        -2.567270         0.824473
 H        -2.677558        -2.837142         3.340958
 H        -0.502951        -1.489378         3.678036
 H        -0.649266         0.825321         2.799174
 H         0.297395        -0.213016         1.925730
