19
Iteration:  2034charge 0 multiplicity 1
 O        -0.878121         0.954632        -0.113555
 C        -1.693747         0.403025         0.987053
 C        -3.067563         0.961318         1.210717
 C        -2.820442        -0.434446         0.617608
 C        -3.394217        -1.626723         1.493053
 C        -2.351670        -2.075345         2.491871
 O        -1.066927        -2.545457         2.065584
 C        -1.154233        -1.337703         2.777086
 C        -0.612898        -0.056442         1.988142
 H        -0.743932         1.915844         0.181325
 H        -3.537062         0.923043         2.122265
 H        -3.376877         1.767446         0.509081
 H        -3.221615        -0.784430        -0.365353
 H        -4.270205        -1.310099         2.029926
 H        -3.654440        -2.533399         0.848265
 H        -2.605373        -2.679326         3.451755
 H        -0.916989        -1.239645         3.831285
 H        -0.311220         0.733916         2.766044
 H         0.303261        -0.258080         1.416656
