19
Iteration:  2599
 O        -0.993276         1.240420        -0.107471
 C        -1.656446         0.380811         0.860732
 C        -2.964655         0.818834         1.372276
 C        -2.856431        -0.418413         0.561920
 C        -3.303944        -1.761407         1.331573
 C        -2.426505        -1.942592         2.526117
 O        -1.137888        -2.604476         2.276863
 C        -1.078658        -1.282691         2.794229
 C        -0.584060        -0.113779         1.929262
 H        -0.643650         0.575244        -0.778662
 H        -3.217082         0.696290         2.453024
 H        -3.498824         1.680918         0.857216
 H        -3.243046        -0.385371        -0.491904
 H        -4.408182        -1.731639         1.574846
 H        -3.088068        -2.661804         0.671535
 H        -3.044304        -2.277516         3.306809
 H        -0.862951        -1.258704         3.912860
 H        -0.327391         0.666371         2.605837
 H         0.283288        -0.545859         1.486590
