19
Iteration:   278charge 0 multiplicity 1
 O        -1.084249         1.196897        -0.122155
 C        -1.712673         0.338210         0.865220
 C        -3.085538         0.699227         1.222062
 C        -2.914961        -0.547034         0.393735
 C        -3.033865        -1.892635         1.184362
 C        -2.384519        -1.825247         2.547634
 O        -1.084293        -2.494815         2.594398
 C        -1.192461        -1.049374         2.894677
 C        -0.618232        -0.185496         1.865462
 H        -0.386639         1.537364         0.421371
 H        -3.608047         0.766796         2.274583
 H        -3.292175         1.546356         0.612183
 H        -2.946981        -0.673019        -0.768985
 H        -4.019914        -2.473278         1.258774
 H        -2.273562        -2.525251         0.665656
 H        -3.027020        -1.944094         3.412622
 H        -1.023561        -0.792689         3.961714
 H        -0.266076         0.711950         2.331631
 H         0.239681        -0.740741         1.422983
