19
Iteration:   102
 O        -0.778076         0.929908         0.008917
 C        -1.742900         0.434839         0.885133
 C        -3.197206         0.765167         0.904821
 C        -2.785113        -0.643098         0.421805
 C        -3.195222        -1.770398         1.448367
 C        -2.251137        -1.970549         2.592849
 O        -0.951002        -2.374183         2.123784
 C        -1.186310        -1.164344         2.936641
 C        -0.957061         0.128879         2.241939
 H        -0.829955         0.379036        -0.803533
 H        -3.907472         0.710632         1.772253
 H        -3.692781         1.534489         0.187842
 H        -2.940992        -0.849577        -0.566935
 H        -4.221610        -1.711564         1.815499
 H        -3.098016        -2.714171         0.947402
 H        -2.751245        -2.596391         3.337815
 H        -0.736771        -1.078197         3.950422
 H        -1.078892         0.922258         2.994922
 H         0.118809         0.246333         1.884156
