19
Iteration:  1974
 O        -1.087431         0.953365        -0.280666
 C        -1.561999         0.475382         0.957232
 C        -2.928248         0.971080         1.367582
 C        -2.929708        -0.356731         0.664933
 C        -3.314526        -1.675789         1.223611
 C        -2.362494        -2.071996         2.454056
 O        -1.038701        -2.643097         2.268447
 C        -1.111361        -1.255378         2.801266
 C        -0.699723        -0.040510         2.091729
 H        -0.430340         0.259738        -0.424282
 H        -3.013775         1.007078         2.510440
 H        -3.287682         1.953071         0.979580
 H        -3.204178        -0.178660        -0.341042
 H        -4.416677        -1.777683         1.446720
 H        -3.103638        -2.340064         0.421824
 H        -2.853588        -2.655297         3.180995
 H        -0.926464        -1.319162         3.870628
 H        -0.805416         0.670853         2.849498
 H         0.356855        -0.045283         1.790394
