19
Iteration:  4653charge 0 multiplicity 1
 O        -0.850752         0.926721        -0.081278
 C        -1.738277         0.401750         0.900519
 C        -3.010194         0.864294         1.351237
 C        -2.941231        -0.472462         0.587267
 C        -3.318235        -1.679371         1.347935
 C        -2.322431        -2.088598         2.429980
 O        -0.968685        -2.482642         2.122673
 C        -1.230517        -1.141589         2.877171
 C        -0.686911        -0.085012         1.972901
 H        -0.879685         1.928249         0.111643
 H        -3.169813         0.814383         2.395364
 H        -3.289058         1.777094         0.708786
 H        -3.338975        -0.384870        -0.447712
 H        -4.303367        -1.729730         1.999160
 H        -3.511053        -2.499730         0.563834
 H        -2.859632        -2.810391         3.177674
 H        -0.854704        -1.089901         3.895096
 H        -0.569221         0.888896         2.483502
 H         0.270652        -0.499605         1.659359
