19
Iteration:  1106charge 0 multiplicity 1
 O        -1.027142         1.180123        -0.118160
 C        -1.712426         0.364879         0.883503
 C        -3.073607         0.737687         1.376898
 C        -2.930706        -0.501504         0.445036
 C        -3.002089        -1.866910         1.086007
 C        -2.369825        -1.870114         2.485183
 O        -1.122062        -2.473626         2.658108
 C        -1.163928        -1.099107         2.852544
 C        -0.663694        -0.264746         1.732563
 H        -0.673834         1.896244         0.423631
 H        -3.035732         0.314916         2.395598
 H        -3.674497         1.631810         1.108777
 H        -3.127559        -0.279580        -0.612117
 H        -4.080831        -1.900118         1.184012
 H        -2.686621        -2.808134         0.576249
 H        -2.950109        -2.037219         3.410962
 H        -1.027106        -0.750159         3.975292
 H        -0.102186         0.516642         2.170099
 H         0.137695        -0.794629         1.212985
