19
Iteration:   129
 O        -1.027929         1.024646        -0.096563
 C        -1.677787         0.314794         0.906555
 C        -3.090128         0.890617         0.909375
 C        -2.741398        -0.631327         0.498738
 C        -3.299760        -1.785896         1.367594
 C        -2.278247        -2.133514         2.453296
 O        -0.851645        -2.321530         2.328622
 C        -1.267441        -1.154587         2.989929
 C        -0.846596         0.061164         2.172498
 H        -0.211958         0.506554        -0.355006
 H        -3.748757         0.991250         1.762873
 H        -3.308932         1.517026         0.119792
 H        -2.722034        -0.783484        -0.688148
 H        -4.146020        -1.461523         2.015026
 H        -3.571771        -2.706606         0.767751
 H        -2.695795        -2.877864         3.178862
 H        -0.957319        -1.053600         4.017100
 H        -0.979753         1.013833         2.843273
 H         0.238715        -0.029827         1.872786
