19
Iteration:  4536
 O        -0.896551         1.156505        -0.173954
 C        -1.627412         0.304905         0.853498
 C        -2.973066         0.815283         1.447428
 C        -2.945078        -0.482767         0.601493
 C        -3.212525        -1.803738         1.265677
 C        -2.424724        -1.996989         2.477795
 O        -1.105456        -2.497920         2.273394
 C        -1.230232        -1.198789         2.849374
 C        -0.615514        -0.094692         1.878917
 H        -0.913806         2.032125         0.320624
 H        -3.061814         0.866273         2.515908
 H        -3.562264         1.574649         0.843664
 H        -3.426123        -0.327737        -0.389980
 H        -4.222894        -1.777833         1.617431
 H        -3.162299        -2.668776         0.596780
 H        -2.972975        -2.509595         3.310540
 H        -0.877603        -1.261151         3.945031
 H        -0.248500         0.804686         2.398059
 H         0.228905        -0.695048         1.573403
