19
Iteration:  2996charge 0 multiplicity 1
 O        -0.951589         0.858502        -0.255393
 C        -1.688911         0.420913         0.968101
 C        -2.955087         1.124341         1.284387
 C        -2.961424        -0.310353         0.632446
 C        -3.281407        -1.643430         1.407296
 C        -2.259368        -2.185563         2.430433
 O        -0.958722        -2.496079         2.028666
 C        -1.186265        -1.396078         2.862516
 C        -0.790460        -0.010817         2.276727
 H        -1.093981         0.009368        -0.714562
 H        -3.270894         1.270116         2.326253
 H        -3.278277         1.929889         0.588748
 H        -3.223856        -0.445916        -0.493418
 H        -4.336843        -1.664764         1.878286
 H        -3.301371        -2.379023         0.532346
 H        -2.791502        -2.773437         3.261140
 H        -0.667625        -1.334402         3.834020
 H        -0.787268         0.831313         3.044073
 H         0.201216        -0.135822         1.840194
