19
Iteration:  3197charge 0 multiplicity 1
 O        -0.949473         0.848892        -0.131528
 C        -1.651357         0.457895         1.023377
 C        -3.035748         1.053456         1.148918
 C        -2.940658        -0.390413         0.636970
 C        -3.344882        -1.572999         1.474623
 C        -2.358659        -2.120466         2.412733
 O        -0.944776        -2.525691         2.004531
 C        -1.069491        -1.397459         2.756972
 C        -0.758538         0.010051         2.244778
 H        -0.586924         0.013767        -0.454479
 H        -3.532827         1.292654         2.109990
 H        -3.436210         1.918115         0.571388
 H        -3.104089        -0.480646        -0.447235
 H        -4.266414        -1.435716         2.048637
 H        -3.600523        -2.367876         0.669188
 H        -2.531797        -2.839338         3.218706
 H        -0.876550        -1.441818         3.829942
 H        -0.664525         0.693184         3.094827
 H         0.228404         0.088409         1.821778
