19
Iteration:   944charge 0 multiplicity 1
 O        -1.004172         1.052953        -0.110197
 C        -1.711038         0.332909         0.918447
 C        -3.121116         0.845527         1.187678
 C        -2.807079        -0.528751         0.546834
 C        -3.107308        -1.786628         1.232164
 C        -2.348433        -1.926402         2.547054
 O        -1.097213        -2.630768         2.408153
 C        -1.129086        -1.143250         2.829095
 C        -0.664158        -0.003798         1.933482
 H        -1.063945         2.012453         0.168521
 H        -3.559506         1.020834         2.190506
 H        -3.439434         1.666124         0.476815
 H        -2.830934        -0.401552        -0.566429
 H        -4.168448        -1.883524         1.578187
 H        -3.002673        -2.773594         0.735495
 H        -3.030673        -2.135440         3.420614
 H        -1.005803        -1.208352         3.867585
 H        -0.381709         0.931361         2.563193
 H         0.168966        -0.374295         1.283943
