19
Iteration:    34charge 0 multiplicity 1
 O        -0.850369         0.620152        -0.081893
 C        -1.735503         0.367738         0.964090
 C        -3.145512         0.836634         0.825820
 C        -2.859207        -0.591206         0.486337
 C        -3.291170        -1.615763         1.457583
 C        -2.193993        -2.227990         2.424932
 O        -0.730789        -2.168870         2.172787
 C        -1.237928        -1.206799         2.973856
 C        -1.086509         0.234170         2.291079
 H        -0.274547         1.408879         0.190100
 H        -3.826046         1.144354         1.659399
 H        -3.364976         1.355272        -0.063055
 H        -3.031752        -0.741732        -0.522271
 H        -4.061264        -1.270899         2.159935
 H        -3.687431        -2.439914         0.885151
 H        -2.386374        -3.148230         2.947592
 H        -0.772411        -1.222164         3.956933
 H        -1.252588         1.061699         2.962067
 H        -0.030770         0.159322         2.101242
