19
Iteration:  1759charge 0 multiplicity 1
 O        -1.152784         1.218778        -0.198975
 C        -1.620910         0.378127         0.849123
 C        -2.990435         0.786886         1.395917
 C        -2.827520        -0.393116         0.512216
 C        -3.166353        -1.688951         1.149116
 C        -2.406048        -1.903121         2.550165
 O        -1.207128        -2.703872         2.525792
 C        -1.100066        -1.210989         2.848227
 C        -0.551003        -0.233131         1.874906
 H        -0.390959         1.789857         0.040264
 H        -3.513160         0.606094         2.285233
 H        -3.457976         1.661486         0.824767
 H        -3.032102        -0.213402        -0.526226
 H        -4.241065        -1.895907         1.102958
 H        -2.709521        -2.518333         0.487762
 H        -2.955435        -2.251167         3.466072
 H        -0.714158        -1.038822         3.853926
 H        -0.177777         0.602619         2.546860
 H         0.290070        -0.717913         1.358410
