19
Iteration:  1085
 O        -1.090524         1.282230        -0.116069
 C        -1.589712         0.425087         0.872711
 C        -3.053139         0.765535         1.352255
 C        -2.842934        -0.527253         0.518314
 C        -3.080234        -1.900306         1.100215
 C        -2.416330        -2.026021         2.557077
 O        -1.058288        -2.543086         2.756797
 C        -1.320987        -1.087252         2.740794
 C        -0.563787        -0.220048         1.654504
 H        -0.641100         2.000775         0.419394
 H        -3.472990         0.929082         2.386880
 H        -3.379834         1.627039         0.722315
 H        -3.458377        -0.410080        -0.382061
 H        -4.157776        -2.066551         1.049954
 H        -2.712171        -2.642753         0.374450
 H        -2.961669        -2.101114         3.515645
 H        -1.243371        -0.732507         3.814317
 H         0.177958         0.437001         2.047666
 H         0.036646        -0.929913         1.082075
