19
Iteration:  1914
 O        -0.891250         1.051207        -0.052697
 C        -1.712547         0.334030         0.894528
 C        -3.033035         0.896117         1.324470
 C        -2.932388        -0.423843         0.571162
 C        -3.258618        -1.751774         1.266443
 C        -2.373149        -1.922819         2.542627
 O        -1.108433        -2.585143         2.262247
 C        -1.110057        -1.196836         2.798815
 C        -0.602336        -0.165853         1.891227
 H        -1.376561         1.866832        -0.120597
 H        -3.166136         0.833761         2.398570
 H        -3.318418         1.755897         0.818864
 H        -3.299256        -0.273995        -0.457392
 H        -4.263923        -1.543900         1.701546
 H        -3.332665        -2.693171         0.610294
 H        -2.931011        -2.516065         3.329713
 H        -0.777077        -1.023400         3.836763
 H        -0.091149         0.728597         2.440021
 H         0.223419        -0.731784         1.437653
