19
Iteration:  4391
 O        -1.213608         1.218699        -0.249375
 C        -1.571210         0.419096         0.865256
 C        -2.866999         0.908046         1.458391
 C        -2.836870        -0.392422         0.537443
 C        -3.060591        -1.823352         1.193691
 C        -2.436564        -1.936312         2.513466
 O        -1.247770        -2.730732         2.470072
 C        -1.102909        -1.278995         2.841590
 C        -0.572315        -0.173150         1.881614
 H        -1.118462         2.150797        -0.029031
 H        -3.225084         0.512179         2.384854
 H        -3.361619         1.869351         1.130650
 H        -3.410568        -0.154033        -0.324611
 H        -4.074819        -2.097605         1.147644
 H        -2.424231        -2.525676         0.586078
 H        -3.086595        -2.121775         3.461259
 H        -1.245281        -1.126636         3.902028
 H        -0.125840         0.709349         2.310686
 H         0.220529        -0.611389         1.222976
