19
Iteration:  1205charge 0 multiplicity 1
 O        -0.983735         0.935495        -0.114917
 C        -1.744611         0.311540         0.917720
 C        -3.004706         0.875704         1.319353
 C        -2.923754        -0.530275         0.493881
 C        -3.148910        -1.813498         1.197322
 C        -2.362349        -1.967692         2.466685
 O        -1.010943        -2.457456         2.313554
 C        -1.188825        -1.088011         2.966879
 C        -0.705731        -0.026541         1.949589
 H        -0.646526         1.739402         0.257822
 H        -3.356927         0.669678         2.380128
 H        -3.456873         1.694624         0.738940
 H        -2.952064        -0.389576        -0.570193
 H        -4.242232        -1.948000         1.353501
 H        -3.026816        -2.642816         0.425515
 H        -2.876057        -2.394023         3.345855
 H        -1.035188        -0.949188         4.126572
 H        -0.360623         0.899355         2.429213
 H         0.217368        -0.373873         1.417298
