19
Iteration:  2875
 O        -0.911520         1.100634        -0.071608
 C        -1.709631         0.389180         0.892535
 C        -2.952804         1.053021         1.230544
 C        -2.985583        -0.407813         0.574747
 C        -3.274547        -1.660790         1.415494
 C        -2.299650        -2.042486         2.553967
 O        -1.002180        -2.575831         2.151333
 C        -1.117223        -1.418844         2.808903
 C        -0.799102        -0.132578         2.014458
 H        -0.472369         0.376539        -0.631128
 H        -3.374956         1.156845         2.280584
 H        -3.402684         1.790327         0.600477
 H        -3.213339        -0.288531        -0.472847
 H        -4.187894        -1.462692         1.883295
 H        -3.457593        -2.588265         0.835497
 H        -2.865977        -2.655366         3.222074
 H        -0.778174        -1.532607         3.884036
 H        -0.679635         0.810603         2.583662
 H         0.122148        -0.263576         1.470931
