19
Iteration:  2532charge 0 multiplicity 1
 O        -0.989190         1.092941        -0.148612
 C        -1.637523         0.442813         0.938596
 C        -2.990622         1.037234         1.260979
 C        -2.956746        -0.384553         0.612831
 C        -3.280964        -1.693826         1.370790
 C        -2.335562        -2.132122         2.500037
 O        -1.084670        -2.667160         2.271180
 C        -1.102309        -1.339926         2.767232
 C        -0.689962        -0.034471         1.983192
 H        -0.423250         0.469512        -0.595490
 H        -3.277609         1.165689         2.274156
 H        -3.533892         1.898003         0.822477
 H        -3.119280        -0.464900        -0.431195
 H        -4.333885        -1.865182         1.668440
 H        -2.922891        -2.438668         0.631761
 H        -2.779152        -2.593679         3.343735
 H        -0.815371        -1.260896         3.839093
 H        -0.478331         0.729169         2.689319
 H         0.189380        -0.099783         1.413339
