19
Iteration:  3315
 O        -0.803869         0.715779        -0.103371
 C        -1.688644         0.377448         0.910731
 C        -2.980860         1.075404         1.170984
 C        -3.055729        -0.383251         0.739235
 C        -3.302411        -1.636983         1.458618
 C        -2.257275        -2.218862         2.429800
 O        -0.926724        -2.487483         1.946738
 C        -1.157365        -1.308610         2.791444
 C        -0.869653         0.102282         2.217764
 H        -1.135476         1.489711        -0.598929
 H        -3.103811         1.646073         2.125124
 H        -3.569244         1.764361         0.432150
 H        -3.255537        -0.309618        -0.374454
 H        -4.140301        -1.295310         2.071164
 H        -3.624869        -2.448149         0.741714
 H        -2.599810        -2.996928         3.164844
 H        -0.708350        -1.460409         3.861890
 H        -1.256418         0.745908         3.093310
 H         0.243032         0.200455         2.175553
