19
Iteration:  2922charge 0 multiplicity 1
 O        -1.077763         1.044640        -0.116010
 C        -1.608066         0.383323         0.982255
 C        -2.991470         0.877691         1.214673
 C        -2.712863        -0.561087         0.604890
 C        -3.391771        -1.604856         1.431755
 C        -2.338091        -1.998713         2.595638
 O        -1.136184        -2.455837         1.938951
 C        -1.117850        -1.369849         2.828991
 C        -0.667935        -0.038926         2.122700
 H        -0.213761         0.699882        -0.308557
 H        -3.207766         1.026936         2.249984
 H        -3.195675         1.797521         0.625358
 H        -2.964962        -0.605046        -0.506362
 H        -4.337244        -1.309030         1.815035
 H        -3.584369        -2.539489         0.837340
 H        -2.969216        -2.632902         3.290644
 H        -0.560729        -1.425517         3.742964
 H        -0.446024         0.651831         2.955406
 H         0.235326        -0.239252         1.572094
