19
Iteration:  2396
 O        -0.978487         0.963813        -0.168977
 C        -1.633977         0.506900         1.043653
 C        -3.046653         1.014374         1.084355
 C        -2.910710        -0.426690         0.629037
 C        -3.322815        -1.605912         1.514191
 C        -2.301382        -2.143145         2.529830
 O        -1.085085        -2.647737         2.013376
 C        -1.016199        -1.364878         2.758106
 C        -0.781498         0.037154         2.123589
 H         0.012279         1.015431         0.018311
 H        -3.623445         1.084665         1.995154
 H        -3.048156         1.700004         0.175400
 H        -3.048331        -0.657705        -0.463339
 H        -4.168156        -1.162277         2.115371
 H        -3.707107        -2.496754         0.910046
 H        -2.645305        -2.746444         3.503946
 H        -0.726828        -1.572155         3.762187
 H        -0.744024         0.466062         3.096694
 H         0.274418         0.188254         1.988996
