19
Iteration:  1512
 O        -0.861041         0.797902        -0.106273
 C        -1.640639         0.395676         0.929459
 C        -3.059815         0.987451         1.236867
 C        -2.861651        -0.422816         0.580806
 C        -3.273744        -1.752698         1.314085
 C        -2.333312        -2.107469         2.400994
 O        -0.927371        -2.444390         2.157346
 C        -1.224079        -1.265368         2.882313
 C        -0.823405         0.076036         2.141434
 H        -1.382489         1.098971        -0.861240
 H        -3.291077         0.984550         2.340917
 H        -3.558778         1.560214         0.495280
 H        -3.016679        -0.282653        -0.501285
 H        -4.234812        -1.512911         1.958447
 H        -3.493939        -2.726713         0.782709
 H        -2.656244        -2.696037         3.190898
 H        -1.155039        -1.087610         4.036441
 H        -0.875406         0.951655         2.890075
 H         0.295949         0.210310         1.835046
