19
Iteration:  3529charge 0 multiplicity 1
 O        -0.988059         1.069485        -0.165985
 C        -1.686394         0.454827         0.895987
 C        -3.079848         0.942537         1.272379
 C        -2.862646        -0.363756         0.511930
 C        -3.309494        -1.691878         1.281318
 C        -2.356557        -2.068369         2.535913
 O        -1.048917        -2.668399         2.335047
 C        -1.101056        -1.318269         2.845851
 C        -0.563256        -0.114552         1.994701
 H        -1.057052         2.048893        -0.043784
 H        -3.336893         0.766306         2.320665
 H        -3.522766         1.826717         0.774509
 H        -3.291068        -0.352501        -0.485217
 H        -4.267783        -1.617582         1.711223
 H        -3.184356        -2.464027         0.456088
 H        -2.975018        -2.542586         3.302225
 H        -0.824429        -1.204690         3.865758
 H        -0.281245         0.573786         2.797330
 H         0.250530        -0.452334         1.357722
