19
Iteration:  1271charge 0 multiplicity 1
 O        -0.935545         1.010608        -0.124571
 C        -1.654564         0.363413         0.897995
 C        -3.048798         0.915396         1.058392
 C        -2.904798        -0.486065         0.509923
 C        -3.271727        -1.688558         1.375203
 C        -2.290190        -2.088352         2.548868
 O        -0.912886        -2.554671         2.284192
 C        -1.170023        -1.296009         2.845089
 C        -0.808964         0.016943         2.085387
 H        -1.114881         1.994756         0.034250
 H        -3.575122         0.993023         1.997143
 H        -3.224191         1.566102         0.130041
 H        -3.133133        -0.696655        -0.533907
 H        -4.182726        -1.424824         1.975442
 H        -3.523292        -2.684847         0.869791
 H        -2.830487        -2.530808         3.370812
 H        -0.955596        -1.315510         3.999517
 H        -0.962533         0.915317         2.722073
 H         0.280833         0.131333         1.846439
