19
Iteration:  1068charge 0 multiplicity 1
 O        -1.191024         1.331188        -0.220111
 C        -1.644668         0.414933         0.815783
 C        -3.000825         0.849181         1.310036
 C        -2.853991        -0.414537         0.494066
 C        -2.945861        -1.866427         1.178751
 C        -2.430500        -2.043399         2.531143
 O        -1.115301        -2.541767         2.749760
 C        -1.239132        -1.149540         2.847990
 C        -0.587856        -0.381544         1.760086
 H        -0.772584         2.103714         0.263514
 H        -3.252839         0.734931         2.387210
 H        -3.508591         1.682811         0.910053
 H        -2.983104        -0.443428        -0.573696
 H        -3.996025        -2.281990         1.274297
 H        -2.460167        -2.554883         0.469058
 H        -3.180171        -2.441379         3.207712
 H        -1.172339        -0.678778         3.794181
 H         0.033138         0.413245         2.320939
 H         0.022536        -0.970222         1.048652
