19
Iteration:  2850charge 0 multiplicity 1
 O        -0.941010         0.978510        -0.146067
 C        -1.654418         0.406960         0.943489
 C        -3.025675         1.010980         1.301661
 C        -2.965778        -0.332254         0.697378
 C        -3.268652        -1.672727         1.306563
 C        -2.291015        -2.122554         2.474680
 O        -1.030935        -2.592478         2.175456
 C        -1.206341        -1.295948         2.843677
 C        -0.677409        -0.038760         2.034557
 H        -0.968550         0.290312        -0.839238
 H        -3.157927         1.199334         2.351791
 H        -3.217728         1.970647         0.623073
 H        -3.274237        -0.233469        -0.331608
 H        -4.397279        -1.731229         1.601977
 H        -2.998649        -2.409086         0.551183
 H        -2.863894        -2.727269         3.119045
 H        -0.880225        -1.444884         3.917820
 H        -0.499957         0.893675         2.614562
 H         0.285630        -0.359312         1.520065
