19
Iteration:  2628charge 0 multiplicity 1
 O        -1.022585         1.138763        -0.162619
 C        -1.686492         0.431391         0.869606
 C        -2.957429         1.060168         1.397675
 C        -2.940257        -0.292530         0.568592
 C        -3.111982        -1.765594         1.259402
 C        -2.375412        -2.103094         2.558314
 O        -1.064795        -2.688167         2.367131
 C        -1.164106        -1.326961         2.812719
 C        -0.708186        -0.124480         1.909670
 H        -1.086587         0.459038        -0.866163
 H        -3.303950         1.114005         2.386897
 H        -3.229592         2.025742         0.881039
 H        -3.286024        -0.156508        -0.454377
 H        -4.159887        -1.911426         1.377551
 H        -2.624272        -2.430570         0.517049
 H        -3.168425        -2.484550         3.342803
 H        -0.949537        -1.241730         3.841276
 H        -0.238688         0.655275         2.573862
 H         0.173592        -0.690309         1.442292
