19
Iteration:   666
 O        -0.679406         0.733530        -0.086470
 C        -1.749472         0.481934         0.973968
 C        -3.215955         0.880914         0.986588
 C        -2.919133        -0.556084         0.611782
 C        -3.263961        -1.681200         1.485246
 C        -2.253542        -2.165253         2.395026
 O        -0.836050        -2.289386         2.021894
 C        -1.202776        -1.183363         2.987013
 C        -1.004158         0.077833         2.230794
 H        -0.978268         1.096666        -0.910424
 H        -3.667411         1.249035         1.954696
 H        -3.498523         1.445627         0.130383
 H        -2.753231        -1.010326        -0.364673
 H        -4.107680        -1.367601         2.186282
 H        -3.661358        -2.558809         0.846193
 H        -2.644520        -2.881587         3.168545
 H        -0.736212        -1.200729         4.015403
 H        -1.020852         0.955144         3.015493
 H         0.042126         0.001411         1.763093
