19
Iteration:  4123
 O        -0.846728         0.927457        -0.207562
 C        -1.715170         0.318856         0.895168
 C        -3.017113         1.007868         1.244971
 C        -2.960767        -0.453484         0.600064
 C        -3.315761        -1.604882         1.425243
 C        -2.268297        -2.263683         2.441198
 O        -0.957673        -2.438434         2.073361
 C        -1.211327        -1.283924         2.905396
 C        -0.795686        -0.030531         2.138434
 H        -0.692162         1.784966         0.187676
 H        -3.210030         1.228801         2.290979
 H        -3.402707         1.723542         0.575290
 H        -3.383594        -0.446420        -0.369467
 H        -4.142007        -1.242533         2.081129
 H        -3.616833        -2.387980         0.757046
 H        -2.622801        -2.967447         3.211879
 H        -0.884976        -1.272774         3.984406
 H        -0.499253         0.829386         2.808273
 H         0.143706        -0.272204         1.620599
