19
Iteration:   527
 O        -0.958210         1.031043        -0.218706
 C        -1.676436         0.461712         0.894787
 C        -3.139455         0.891950         1.139370
 C        -2.761335        -0.561084         0.597784
 C        -3.197715        -1.806804         1.275402
 C        -2.362308        -2.072060         2.535634
 O        -0.870729        -2.504401         2.390391
 C        -1.199025        -1.172646         2.884348
 C        -0.866766         0.048182         2.075360
 H        -0.798890         0.366404        -0.901674
 H        -3.442054         0.966936         2.173691
 H        -3.512108         1.537158         0.259184
 H        -2.985871        -0.410322        -0.505850
 H        -4.205841        -1.844321         1.615247
 H        -2.934267        -2.679998         0.710301
 H        -2.974994        -2.682810         3.294280
 H        -1.092674        -1.088290         3.929419
 H        -1.084311         0.775281         2.863374
 H         0.143677         0.260121         1.807084
