19
Iteration:   545
 O        -0.999661         1.021482        -0.179453
 C        -1.664358         0.325296         0.820855
 C        -3.081805         0.872369         1.098996
 C        -2.885732        -0.529890         0.453652
 C        -3.131476        -1.763882         1.347795
 C        -2.253478        -2.150106         2.485489
 O        -0.893828        -2.439673         2.344351
 C        -1.239911        -1.148796         2.971864
 C        -0.920199         0.113402         2.146800
 H        -0.204898         0.534334        -0.443790
 H        -3.250993         0.840395         2.173028
 H        -3.469228         1.750567         0.465962
 H        -3.160276        -0.599160        -0.570020
 H        -4.138631        -1.463850         1.806133
 H        -3.455123        -2.606949         0.644207
 H        -2.777072        -2.698774         3.328800
 H        -0.914669        -1.276237         4.070158
 H        -0.911647         0.941291         2.885020
 H         0.109063        -0.252784         1.913615
