19
Iteration:  2237charge 0 multiplicity 1
 O        -0.954770         0.947216        -0.204503
 C        -1.584579         0.334124         1.029057
 C        -3.013498         0.936368         1.126588
 C        -2.839802        -0.490159         0.663575
 C        -3.370846        -1.525492         1.632486
 C        -2.347528        -2.156076         2.461720
 O        -1.158071        -2.383736         1.839978
 C        -1.103293        -1.373040         2.798445
 C        -0.712319         0.031248         2.223774
 H         0.016922         0.847503         0.040747
 H        -3.517237         0.815263         2.093501
 H        -3.263722         1.787227         0.411096
 H        -2.832942        -0.711461        -0.451248
 H        -4.093882        -1.192433         2.392895
 H        -3.850159        -2.314526         1.110467
 H        -2.569856        -2.891264         3.168208
 H        -0.526015        -1.656910         3.724366
 H        -0.738204         0.633295         3.145637
 H         0.239541        -0.316654         1.770034
