19
Iteration:    35charge 0 multiplicity 1
 O        -0.846846         0.620719        -0.086271
 C        -1.734468         0.370172         0.966930
 C        -3.143324         0.838108         0.821353
 C        -2.856536        -0.585279         0.488216
 C        -3.284927        -1.621767         1.454176
 C        -2.208456        -2.239427         2.433464
 O        -0.733129        -2.162282         2.173967
 C        -1.221252        -1.205090         2.972797
 C        -1.095533         0.226191         2.290118
 H        -0.333424         1.439319         0.147512
 H        -3.818451         1.137015         1.709805
 H        -3.350932         1.360727        -0.096300
 H        -3.052406        -0.725853        -0.465789
 H        -4.065786        -1.278666         2.135013
 H        -3.678560        -2.413462         0.862766
 H        -2.413012        -3.155827         2.960498
 H        -0.774967        -1.227903         3.982668
 H        -1.282135         1.065467         2.983771
 H        -0.000720         0.157583         2.067898
