19
Iteration:  1777charge 0 multiplicity 1
 O        -1.128617         1.128589        -0.207810
 C        -1.589112         0.399456         0.902860
 C        -2.973403         0.893783         1.404705
 C        -2.802651        -0.426180         0.600711
 C        -3.045809        -1.807960         1.176322
 C        -2.493283        -1.956021         2.472630
 O        -1.182170        -2.637209         2.507243
 C        -1.220418        -1.257364         2.786802
 C        -0.544459        -0.168045         1.835850
 H        -1.188805         2.071918         0.096898
 H        -2.937612         0.990452         2.565388
 H        -3.367667         1.877137         1.028393
 H        -3.148478        -0.208813        -0.457182
 H        -4.138839        -1.901813         1.315222
 H        -2.900983        -2.593016         0.450994
 H        -3.151020        -2.103347         3.291726
 H        -1.078512        -1.017148         3.861308
 H        -0.036661         0.604015         2.424501
 H         0.347742        -0.629893         1.294971
