19
Iteration:  2605
 O        -0.994289         1.227644        -0.110359
 C        -1.630336         0.401161         0.860088
 C        -2.967764         0.860597         1.350282
 C        -2.865233        -0.455375         0.607902
 C        -3.253707        -1.722713         1.303335
 C        -2.379053        -1.948766         2.504334
 O        -1.155844        -2.632961         2.293594
 C        -1.115069        -1.281067         2.830524
 C        -0.640741        -0.139684         1.891301
 H        -0.781290         0.587728        -0.796501
 H        -3.223288         0.813657         2.380725
 H        -3.591396         1.662266         0.993254
 H        -3.309389        -0.373374        -0.348915
 H        -4.285374        -1.718947         1.573824
 H        -2.964789        -2.504477         0.604458
 H        -3.038521        -2.389690         3.376867
 H        -0.785201        -1.289136         3.833141
 H        -0.381696         0.702532         2.609648
 H         0.387859        -0.475598         1.489660
