19
Iteration:  2764
 O        -1.011562         1.224777        -0.034238
 C        -1.675174         0.410506         0.897278
 C        -3.053853         0.962532         1.213429
 C        -2.868068        -0.423311         0.574631
 C        -3.204248        -1.643032         1.347561
 C        -2.356149        -2.078751         2.548271
 O        -1.095080        -2.682493         2.321812
 C        -1.150141        -1.244486         2.791824
 C        -0.644177        -0.183064         1.860661
 H        -0.328966         0.692113        -0.405354
 H        -3.497658         0.812622         2.207279
 H        -3.432907         1.898993         0.672086
 H        -3.200311        -0.376280        -0.458189
 H        -4.212231        -1.628341         1.713118
 H        -3.317802        -2.584792         0.722787
 H        -2.789428        -2.428483         3.445753
 H        -0.733100        -1.169147         3.844444
 H         0.034847         0.447739         2.412827
 H         0.004616        -0.845324         1.264930
