19
Iteration:  3091charge 0 multiplicity 1
 O        -0.982413         1.091198        -0.111195
 C        -1.674531         0.410728         1.011430
 C        -3.032173         1.076533         1.006392
 C        -2.902899        -0.471214         0.582398
 C        -3.378164        -1.567087         1.576014
 C        -2.251673        -2.134504         2.476491
 O        -1.068606        -2.634333         1.993174
 C        -1.078839        -1.449089         2.851472
 C        -0.662063        -0.012607         2.248634
 H        -0.773101         0.505787        -0.850178
 H        -3.372991         1.189024         2.054569
 H        -3.257496         1.841922         0.214000
 H        -2.789592        -0.887325        -0.462701
 H        -4.293870        -1.145406         2.043369
 H        -3.727277        -2.335996         0.950195
 H        -2.670995        -2.725534         3.290301
 H        -0.581480        -1.592807         3.794680
 H        -0.851214         0.751994         2.986281
 H         0.302147        -0.050675         1.650777
