19
Iteration:   936
 O        -0.971538         1.027042        -0.100454
 C        -1.650357         0.373967         0.928553
 C        -3.124597         0.790680         1.194513
 C        -2.859184        -0.504837         0.472767
 C        -3.139160        -1.802541         1.288502
 C        -2.378022        -1.888473         2.608982
 O        -1.089622        -2.602937         2.335794
 C        -1.145085        -1.132871         2.826112
 C        -0.679759        -0.042570         1.978889
 H        -1.159732         1.993206         0.020577
 H        -3.568319         0.835017         2.190083
 H        -3.404543         1.592429         0.417379
 H        -3.048109        -0.369324        -0.616202
 H        -4.269677        -1.834082         1.391932
 H        -2.681986        -2.697547         0.844345
 H        -3.009600        -2.268939         3.411621
 H        -0.593430        -1.113625         3.739392
 H        -0.468839         0.865438         2.539931
 H         0.299556        -0.223715         1.539229
