19
Iteration:    52charge 0 multiplicity 1
 O        -0.796538         0.676647        -0.135618
 C        -1.732080         0.349676         0.901275
 C        -3.143666         0.952948         0.821803
 C        -2.831617        -0.570826         0.571830
 C        -3.231360        -1.777552         1.454653
 C        -2.188507        -2.124870         2.509887
 O        -0.812398        -2.258381         2.094802
 C        -1.236686        -1.181472         2.998960
 C        -1.100060         0.163201         2.343512
 H        -1.028550         1.587051        -0.441299
 H        -3.583603         1.256563         1.731886
 H        -3.453692         1.668135         0.056711
 H        -2.571106        -0.881760        -0.548539
 H        -4.165034        -1.536609         2.018363
 H        -3.470018        -2.699071         0.833723
 H        -2.515858        -2.915829         3.215780
 H        -0.903248        -1.219754         4.043762
 H        -1.527647         0.907883         3.042109
 H        -0.051456         0.493407         2.291557
