19
Iteration:   536charge 0 multiplicity 1
 O        -0.990903         1.037477        -0.192486
 C        -1.728194         0.427733         0.837115
 C        -3.025365         0.887410         1.132656
 C        -2.789947        -0.544411         0.492079
 C        -3.164349        -1.770421         1.325700
 C        -2.295291        -2.061847         2.503236
 O        -0.858602        -2.498889         2.370937
 C        -1.256476        -1.211704         2.918493
 C        -0.909478         0.056692         2.138319
 H        -0.557881         0.261179        -0.571276
 H        -3.350261         1.054157         2.146344
 H        -3.746398         1.448597         0.445756
 H        -3.150130        -0.657259        -0.527539
 H        -4.194408        -1.628662         1.726233
 H        -3.232025        -2.697747         0.678037
 H        -2.752130        -2.734421         3.323627
 H        -1.105695        -0.982686         3.987126
 H        -1.025832         0.941187         2.699886
 H         0.149454         0.075278         1.885870
