19
Iteration:   820
 O        -0.885427         0.756283        -0.159054
 C        -1.636003         0.450422         0.998216
 C        -3.053304         0.906152         1.103485
 C        -2.852403        -0.541385         0.595243
 C        -3.346375        -1.797573         1.397449
 C        -2.278711        -2.080753         2.508173
 O        -1.042648        -2.426869         2.032366
 C        -1.043485        -1.199079         2.786224
 C        -0.938267         0.228078         2.258211
 H         0.004802         1.119034         0.123169
 H        -3.381382         1.186876         2.040629
 H        -3.524504         1.382039         0.221572
 H        -3.101322        -0.572349        -0.484900
 H        -4.328346        -1.739521         1.847338
 H        -3.284301        -2.718507         0.754661
 H        -2.493423        -2.442334         3.545024
 H        -0.672519        -1.448391         3.823664
 H        -1.295452         0.850035         3.181067
 H         0.113407         0.609423         2.017735
