19
Iteration:  1643charge 0 multiplicity 1
 O        -0.932514         0.926044        -0.188837
 C        -1.659859         0.410935         0.989900
 C        -2.970238         0.872960         1.389307
 C        -2.933431        -0.454355         0.660468
 C        -3.131274        -1.824547         1.143721
 C        -2.427214        -1.942517         2.485031
 O        -1.114899        -2.531082         2.293276
 C        -1.163659        -1.181546         2.878303
 C        -0.686361        -0.021711         1.934908
 H        -1.161975         1.897332        -0.280391
 H        -3.150492         1.020884         2.387451
 H        -3.371270         1.710662         0.726881
 H        -3.163836        -0.416225        -0.387712
 H        -4.205268        -2.090134         1.256488
 H        -2.728890        -2.510517         0.450854
 H        -3.028926        -2.422672         3.245741
 H        -1.088487        -1.068438         3.984916
 H        -0.415871         0.772794         2.605261
 H         0.142951        -0.437088         1.382167
