19
Iteration:  2312charge 0 multiplicity 1
 O        -0.818397         0.696950        -0.141669
 C        -1.680172         0.422490         0.923345
 C        -3.042161         1.120248         1.244179
 C        -2.946602        -0.335570         0.754321
 C        -3.248530        -1.586018         1.493621
 C        -2.307440        -2.129488         2.459551
 O        -1.009596        -2.457099         1.915050
 C        -1.096673        -1.392844         2.771907
 C        -0.896010         0.008491         2.177905
 H        -1.465084         0.641184        -0.830662
 H        -3.227639         1.351751         2.338516
 H        -3.319901         2.009819         0.627437
 H        -2.927306        -0.456833        -0.368264
 H        -4.206512        -1.404294         1.940314
 H        -3.419059        -2.449471         0.840936
 H        -2.652302        -2.860172         3.149644
 H        -0.517633        -1.498843         3.729171
 H        -1.169260         0.553713         3.141539
 H         0.175689         0.075638         1.968535
