19
Iteration:  2658charge 0 multiplicity 1
 O        -1.097591         1.031074        -0.167326
 C        -1.606483         0.369948         0.907383
 C        -2.979913         1.026165         1.480852
 C        -2.985947        -0.313941         0.694794
 C        -3.109703        -1.714514         1.111899
 C        -2.341510        -2.072626         2.380538
 O        -1.042622        -2.575278         2.410300
 C        -1.235496        -1.252158         2.836225
 C        -0.649217        -0.193629         1.916134
 H        -0.714821         0.308421        -0.668671
 H        -3.102244         1.290652         2.499818
 H        -3.286575         1.843944         0.846046
 H        -3.298936         0.056498        -0.228785
 H        -4.176015        -1.841927         1.388478
 H        -2.882286        -2.301275         0.258377
 H        -2.967741        -2.452476         3.212822
 H        -1.138641        -1.119915         3.889376
 H        -0.046387         0.646762         2.350083
 H         0.154745        -0.820860         1.457945
