19
Iteration:  4513charge 0 multiplicity 1
 O        -1.129956         1.042502        -0.210038
 C        -1.575068         0.417762         0.972895
 C        -2.942975         0.810913         1.425918
 C        -2.814591        -0.393665         0.495967
 C        -3.235951        -1.727614         1.207623
 C        -2.423512        -1.987164         2.467611
 O        -1.105031        -2.561195         2.349389
 C        -1.189601        -1.257218         2.851185
 C        -0.575631        -0.119824         1.919342
 H        -1.293691         1.971753         0.000457
 H        -3.074457         0.641137         2.500449
 H        -3.226252         1.845403         1.138758
 H        -3.025951        -0.201258        -0.581706
 H        -4.272832        -1.903061         1.391903
 H        -2.917136        -2.519326         0.496311
 H        -2.978567        -2.321899         3.414004
 H        -1.031641        -1.200938         3.991996
 H        -0.308821         0.705173         2.632238
 H         0.376248        -0.548351         1.514399
