19
Iteration:  1331
 O        -0.879353         0.768505        -0.122238
 C        -1.651437         0.340558         0.997250
 C        -2.983652         0.877201         1.155987
 C        -2.856502        -0.529294         0.560565
 C        -3.332659        -1.744157         1.342292
 C        -2.355855        -2.079952         2.469057
 O        -0.979348        -2.345404         2.028535
 C        -1.135088        -1.244065         2.873123
 C        -0.816739         0.269157         2.319654
 H        -1.398016         0.668440        -0.946124
 H        -3.495724         1.260932         2.110647
 H        -3.335923         1.632284         0.494091
 H        -3.066883        -0.545069        -0.514805
 H        -4.440848        -1.744537         1.797694
 H        -3.244377        -2.628916         0.639927
 H        -2.532635        -2.966162         3.206643
 H        -0.607371        -1.407318         3.782826
 H        -1.348456         0.882358         3.045006
 H         0.207984         0.497725         2.085291
