19
Iteration:    92
 O        -0.751919         0.888757        -0.004009
 C        -1.742446         0.376431         0.933760
 C        -3.232073         0.833161         0.910209
 C        -2.725567        -0.629631         0.500778
 C        -3.207160        -1.830710         1.423150
 C        -2.334724        -1.986232         2.606105
 O        -0.978511        -2.354860         2.122780
 C        -1.066098        -1.134931         2.866090
 C        -1.009254         0.169221         2.213500
 H        -0.972035         0.599676        -0.896954
 H        -3.641674         0.865754         1.961440
 H        -3.712748         1.431459         0.026188
 H        -2.719043        -0.844584        -0.553638
 H        -4.264384        -1.753145         1.643900
 H        -3.107988        -2.789499         0.915702
 H        -2.708635        -2.619349         3.439013
 H        -0.564591        -1.287674         3.852736
 H        -1.511908         0.912826         2.910742
 H         0.113798         0.473510         2.179235
