19
Iteration:  4128charge 0 multiplicity 1
 O        -0.867389         0.889648        -0.166549
 C        -1.723568         0.397141         0.888871
 C        -3.035789         0.937717         1.222105
 C        -2.961183        -0.439442         0.624733
 C        -3.317759        -1.589928         1.392992
 C        -2.261091        -2.213817         2.440037
 O        -0.944116        -2.436636         2.061391
 C        -1.228019        -1.291257         2.954557
 C        -0.767714        -0.036398         2.079959
 H        -0.519000         1.753638         0.225406
 H        -3.221099         1.127578         2.289545
 H        -3.510404         1.725524         0.543926
 H        -3.385406        -0.374301        -0.412442
 H        -4.080952        -1.286841         2.104297
 H        -3.692340        -2.376093         0.639866
 H        -2.581446        -2.747431         3.403250
 H        -0.862629        -1.542887         3.946380
 H        -0.461878         0.712363         2.796532
 H         0.248358        -0.321941         1.712709
