19
Iteration:  4412charge 0 multiplicity 1
 O        -1.215108         1.157379        -0.178151
 C        -1.541331         0.370305         0.927035
 C        -2.994107         0.795763         1.521146
 C        -2.782222        -0.369768         0.528062
 C        -3.145132        -1.736857         1.128331
 C        -2.471747        -1.991079         2.463283
 O        -1.140655        -2.599374         2.498266
 C        -1.166930        -1.172464         2.807171
 C        -0.550753        -0.263972         1.812039
 H        -0.696103         2.007001         0.006121
 H        -3.082463         0.763227         2.604433
 H        -3.472168         1.620255         0.933175
 H        -3.053123        -0.247360        -0.511451
 H        -4.191271        -1.768722         1.292830
 H        -2.818468        -2.518746         0.414705
 H        -3.211158        -2.105113         3.328380
 H        -0.762829        -1.031649         3.788689
 H        -0.079786         0.535085         2.439210
 H         0.278895        -0.676994         1.162172
