19
Iteration:  3116charge 0 multiplicity 1
 O        -0.933060         0.908812        -0.085190
 C        -1.647938         0.492490         1.021998
 C        -3.088058         0.967451         1.168180
 C        -2.866655        -0.388772         0.626801
 C        -3.244027        -1.557608         1.482109
 C        -2.296010        -2.072951         2.531921
 O        -1.043792        -2.573720         1.956903
 C        -1.131311        -1.395707         2.790651
 C        -0.783100        -0.030898         2.147973
 H        -0.898434         0.201293        -0.771437
 H        -3.448424         1.235990         2.119206
 H        -3.125088         1.735021         0.395047
 H        -3.011598        -0.556068        -0.461897
 H        -4.184285        -1.170379         1.950678
 H        -3.596518        -2.341990         0.802819
 H        -2.742483        -2.710630         3.232012
 H        -0.472116        -1.402787         3.650036
 H        -1.005041         0.679049         2.928341
 H         0.205479        -0.106992         1.789209
