19
Iteration:  4282
 O        -1.091579         1.179268        -0.278021
 C        -1.636448         0.390099         0.921507
 C        -2.958103         0.892739         1.416703
 C        -2.860692        -0.463734         0.567142
 C        -3.169350        -1.715606         1.233358
 C        -2.425694        -1.988025         2.554320
 O        -1.182111        -2.676034         2.376395
 C        -1.111375        -1.322966         2.767933
 C        -0.567360        -0.053061         1.951119
 H        -0.524291         1.916002        -0.031391
 H        -3.100668         0.853914         2.487864
 H        -3.672761         1.515602         0.849788
 H        -3.314934        -0.371469        -0.414141
 H        -4.207202        -1.981599         1.213003
 H        -2.753742        -2.658335         0.700930
 H        -3.040710        -2.332366         3.454381
 H        -0.697651        -1.216519         3.784052
 H        -0.600803         0.664355         2.700370
 H         0.436685        -0.224412         1.551942
