19
Iteration:  4234charge 0 multiplicity 1
 O        -0.960742         0.977234        -0.088584
 C        -1.623544         0.355081         0.922776
 C        -3.097078         0.929440         1.295549
 C        -2.932152        -0.336408         0.633919
 C        -3.328781        -1.723772         1.242180
 C        -2.312237        -2.043291         2.480312
 O        -0.928722        -2.498555         2.266022
 C        -1.210691        -1.261731         2.864642
 C        -0.622964        -0.160432         1.899635
 H        -1.141361         1.952609        -0.225656
 H        -3.430610         0.970774         2.349514
 H        -3.294923         1.790898         0.637091
 H        -3.199587        -0.157787        -0.426844
 H        -4.322789        -1.627420         1.726633
 H        -3.554343        -2.596477         0.588878
 H        -2.794128        -2.614532         3.309815
 H        -0.976528        -1.202729         3.937706
 H        -0.223814         0.649566         2.566072
 H         0.110704        -0.841601         1.449240
