19
Iteration:   250charge 0 multiplicity 1
 O        -1.137888         1.259382        -0.173926
 C        -1.667998         0.448830         0.781959
 C        -3.087840         0.793574         1.218519
 C        -2.740193        -0.544324         0.411244
 C        -3.068351        -1.850385         1.210987
 C        -2.370754        -2.130056         2.527388
 O        -1.005887        -2.518216         2.742337
 C        -1.318788        -1.084798         2.880398
 C        -0.648292        -0.127231         1.866387
 H        -0.255658         0.893847        -0.254355
 H        -3.256879         0.867654         2.234691
 H        -3.593269         1.568488         0.622683
 H        -2.936240        -0.505570        -0.685836
 H        -4.075994        -1.718774         1.546106
 H        -2.947127        -2.694147         0.518998
 H        -3.066985        -2.570239         3.267775
 H        -1.223805        -0.815386         3.922706
 H        -0.332217         0.797379         2.444494
 H         0.213708        -0.648425         1.357597
