19
Iteration:  3228
 O        -0.828995         1.003535        -0.023029
 C        -1.681459         0.397802         0.916100
 C        -3.002027         1.022388         1.116270
 C        -2.904978        -0.443097         0.528270
 C        -3.308029        -1.600239         1.579143
 C        -2.285169        -2.189408         2.562840
 O        -1.134245        -2.526566         1.964724
 C        -0.981936        -1.369200         2.770084
 C        -0.883121         0.027485         2.172713
 H        -0.981414         0.676268        -0.940657
 H        -3.297851         1.037864         2.192172
 H        -3.175957         1.669482         0.267496
 H        -3.307637        -0.753085        -0.423967
 H        -4.191315        -1.214823         2.087692
 H        -3.662889        -2.518611         0.963639
 H        -2.513458        -2.944504         3.338518
 H        -0.586311        -1.680633         3.746504
 H        -0.981548         0.770073         2.989884
 H         0.080127         0.273588         1.782042
