19
Iteration:  4831charge 0 multiplicity 1
 O        -0.919345         0.896337        -0.081804
 C        -1.741118         0.384305         0.948848
 C        -3.056471         1.012512         1.225338
 C        -2.959037        -0.364015         0.617365
 C        -3.304553        -1.699158         1.382516
 C        -2.313435        -2.070988         2.550452
 O        -1.012123        -2.577052         2.056930
 C        -1.031354        -1.316961         2.782358
 C        -0.754175         0.006443         2.021459
 H        -0.360735         1.654073         0.263530
 H        -3.463628         1.070843         2.167245
 H        -3.313855         1.786745         0.451214
 H        -3.335321        -0.583956        -0.424612
 H        -4.396521        -1.630478         1.809266
 H        -3.040739        -2.674535         0.910604
 H        -2.617695        -2.694446         3.449158
 H        -0.596798        -1.324441         3.736842
 H        -0.886105         0.724116         2.827711
 H         0.240387         0.222713         1.676893
