19
Iteration:  2192
 O        -0.867528         0.896172        -0.096630
 C        -1.629967         0.399704         0.971754
 C        -3.046775         1.124809         1.125703
 C        -3.024031        -0.380877         0.626660
 C        -3.312669        -1.584926         1.555587
 C        -2.222071        -2.147554         2.524521
 O        -1.099146        -2.560544         1.889738
 C        -1.014462        -1.374997         2.833065
 C        -0.827632        -0.031914         2.143474
 H        -0.393569         0.112761        -0.525465
 H        -3.445611         1.253786         2.161116
 H        -3.412453         2.025622         0.515627
 H        -3.206799        -0.600693        -0.460241
 H        -4.179701        -1.455614         2.199458
 H        -3.566158        -2.313622         0.809628
 H        -2.508994        -2.717412         3.358732
 H        -0.464345        -1.488210         3.794994
 H        -1.264998         0.666268         2.931008
 H         0.246935         0.187425         1.964269
