19
Iteration:   605
 O        -0.886478         0.820970        -0.161397
 C        -1.691798         0.434187         0.873087
 C        -3.205520         0.876882         1.007912
 C        -2.745880        -0.581239         0.559186
 C        -3.240013        -1.683517         1.426731
 C        -2.272734        -2.094224         2.610109
 O        -1.012582        -2.418454         2.090655
 C        -1.118613        -1.225848         2.890190
 C        -0.858225         0.158308         2.268106
 H        -0.455711         1.661876        -0.061351
 H        -3.948302         0.698880         1.814722
 H        -3.616200         1.514086         0.283928
 H        -2.863921        -0.825599        -0.539472
 H        -4.286130        -1.716766         1.623366
 H        -3.024476        -2.548701         0.868810
 H        -2.764106        -2.697289         3.399233
 H        -0.577002        -1.352973         3.793974
 H        -1.216665         0.825338         3.015446
 H         0.141056         0.476017         2.122415
