19
Iteration:  2698charge 0 multiplicity 1
 O        -1.002322         1.230547        -0.171770
 C        -1.613617         0.356366         0.851390
 C        -2.922109         0.790667         1.479948
 C        -2.893216        -0.410009         0.592832
 C        -3.255670        -1.794282         1.217309
 C        -2.474414        -1.929908         2.510370
 O        -1.162616        -2.567885         2.327165
 C        -1.137432        -1.227551         2.827536
 C        -0.574209        -0.153285         1.910161
 H        -0.304013         0.845492        -0.774925
 H        -3.072312         0.622854         2.639373
 H        -3.470606         1.590273         1.016571
 H        -3.606317        -0.387568        -0.285766
 H        -4.360555        -1.817407         1.494852
 H        -2.885205        -2.633414         0.503244
 H        -3.046696        -2.232220         3.368986
 H        -0.784419        -1.227909         3.927990
 H        -0.223429         0.703982         2.466697
 H         0.239078        -0.549178         1.303169
