19
Iteration:  1743charge 0 multiplicity 1
 O        -1.102925         1.228852        -0.118204
 C        -1.656441         0.394680         0.932731
 C        -3.029679         0.814125         1.325113
 C        -2.892332        -0.406042         0.393889
 C        -3.062608        -1.747740         1.209089
 C        -2.448526        -1.884812         2.553404
 O        -1.171119        -2.607469         2.486770
 C        -1.121569        -1.308718         2.879542
 C        -0.579848        -0.203200         1.798290
 H        -0.164410         1.240250         0.049310
 H        -3.142718         0.516180         2.457775
 H        -3.224372         1.804709         1.107456
 H        -3.245952        -0.525731        -0.656252
 H        -4.106706        -1.758750         1.563613
 H        -2.822258        -2.624693         0.683132
 H        -3.138548        -2.148335         3.323687
 H        -0.897081        -1.165018         3.957429
 H        -0.099400         0.616843         2.314089
 H         0.109551        -0.698651         1.021094
