19
Iteration:  4596charge 0 multiplicity 1
 O        -1.203582         0.947039        -0.222108
 C        -1.619770         0.467694         1.039259
 C        -3.001636         0.991122         1.236946
 C        -2.826605        -0.352533         0.553562
 C        -3.220492        -1.659630         1.210764
 C        -2.383020        -2.008423         2.509648
 O        -1.030518        -2.654602         2.274601
 C        -1.091347        -1.331229         2.829185
 C        -0.631568        -0.110677         2.113605
 H        -0.756247         1.763476        -0.016447
 H        -3.615981         0.870766         2.188170
 H        -3.406605         1.792006         0.651760
 H        -2.732416        -0.343432        -0.536936
 H        -4.274914        -1.770806         1.627631
 H        -3.013787        -2.467195         0.492549
 H        -3.019817        -2.409800         3.287423
 H        -0.625423        -1.388333         3.787404
 H        -0.509945         0.665646         2.843069
 H         0.391809        -0.262037         1.736581
