19
Iteration:  4297charge 0 multiplicity 1
 O        -1.147328         1.188573        -0.257736
 C        -1.584591         0.445219         0.817802
 C        -2.950427         0.830320         1.417353
 C        -2.853093        -0.373400         0.587398
 C        -3.153270        -1.839900         1.210378
 C        -2.453009        -1.990090         2.516339
 O        -1.164163        -2.724797         2.404199
 C        -1.098107        -1.253843         2.856139
 C        -0.634918        -0.061649         1.915979
 H        -0.340521         1.601461         0.183847
 H        -3.075844         0.626126         2.485479
 H        -3.184573         1.867325         1.137000
 H        -3.134391        -0.304970        -0.454526
 H        -4.271405        -1.818544         1.481692
 H        -2.988568        -2.538800         0.407042
 H        -2.985022        -2.309449         3.391341
 H        -0.875333        -1.050312         3.987415
 H        -0.341264         0.808200         2.619288
 H         0.301723        -0.294607         1.375555
