19
Iteration:  1442
 O        -0.864607         0.816531        -0.137848
 C        -1.686946         0.467116         0.972571
 C        -3.096295         0.906393         1.090535
 C        -2.833365        -0.575754         0.538436
 C        -3.254813        -1.666430         1.466022
 C        -2.335375        -2.014758         2.549043
 O        -1.032230        -2.476473         1.952340
 C        -1.082070        -1.267732         2.869839
 C        -0.867213         0.139515         2.255429
 H        -0.121477         1.398535         0.001990
 H        -3.487469         0.701868         2.058549
 H        -3.460372         1.717096         0.363660
 H        -2.990913        -0.749009        -0.522107
 H        -4.355651        -1.489925         1.819806
 H        -3.503303        -2.509424         0.798276
 H        -2.686792        -2.818846         3.303171
 H        -0.797823        -1.595807         3.869031
 H        -1.153070         0.817755         3.074677
 H         0.187700         0.317157         2.106018
