19
Iteration:  1505charge 0 multiplicity 1
 O        -0.826165         0.795728        -0.187918
 C        -1.673752         0.372129         0.933175
 C        -3.109525         1.004639         1.218686
 C        -2.863164        -0.423867         0.659734
 C        -3.298257        -1.689341         1.342030
 C        -2.290250        -2.147761         2.352838
 O        -0.900252        -2.419276         2.172743
 C        -1.233313        -1.265926         2.936353
 C        -0.816032         0.015348         2.185384
 H        -1.312094         1.249467        -0.866141
 H        -3.469500         1.078105         2.205849
 H        -3.559021         1.770303         0.458073
 H        -3.056661        -0.443887        -0.402773
 H        -4.157406        -1.530007         1.897965
 H        -3.319070        -2.470204         0.572838
 H        -2.832388        -2.894687         3.031848
 H        -1.046337        -1.098223         3.954627
 H        -0.990073         0.863193         2.843072
 H         0.196067         0.154860         1.828528
