19
Iteration:   194
 O        -0.911338         0.861891        -0.085597
 C        -1.669679         0.290405         0.923010
 C        -3.103048         0.807928         1.195151
 C        -2.932101        -0.518906         0.518460
 C        -2.998745        -1.910068         1.165388
 C        -2.375148        -1.856511         2.538254
 O        -1.015346        -2.437343         2.419769
 C        -1.225708        -1.068464         2.823636
 C        -0.838265         0.106261         2.053363
 H        -1.585110         1.570021        -0.359125
 H        -3.514115         0.783651         2.199892
 H        -3.326713         1.693268         0.766931
 H        -2.945818        -0.524956        -0.691300
 H        -3.953748        -2.363938         1.133165
 H        -2.439522        -2.579105         0.456094
 H        -3.044305        -2.338943         3.218673
 H        -0.916563        -1.034510         3.840986
 H        -0.573055         1.035121         2.641127
 H         0.244073        -0.151458         1.668895
