19
Iteration:   286
 O        -1.066793         1.118095        -0.090850
 C        -1.725205         0.318055         0.864222
 C        -3.167143         0.714282         1.237183
 C        -2.860727        -0.530087         0.369098
 C        -2.913676        -1.849315         1.205376
 C        -2.429104        -1.805725         2.590332
 O        -1.141288        -2.496388         2.564536
 C        -1.200206        -1.045169         2.857915
 C        -0.596717        -0.165952         1.820364
 H        -0.480550         1.702201         0.373320
 H        -3.408658         0.508989         2.350580
 H        -3.557919         1.663698         0.797767
 H        -3.088754        -0.585656        -0.642436
 H        -3.879832        -2.440646         1.137299
 H        -2.269376        -2.599546         0.751077
 H        -3.055504        -2.168523         3.455864
 H        -0.917406        -0.702014         3.886220
 H        -0.189174         0.802596         2.319246
 H         0.280981        -0.664857         1.482240
