19
Iteration:  1646
 O        -0.938867         0.926903        -0.197055
 C        -1.655155         0.424205         0.988415
 C        -2.949383         0.880340         1.382966
 C        -2.942783        -0.457032         0.669862
 C        -3.153442        -1.836885         1.122840
 C        -2.404469        -1.922573         2.499162
 O        -1.110571        -2.550643         2.295344
 C        -1.184113        -1.183598         2.898865
 C        -0.675657        -0.018427         1.931638
 H        -1.229218         1.825326        -0.319446
 H        -3.237533         0.980596         2.468104
 H        -3.434331         1.648777         0.810480
 H        -3.109464        -0.418822        -0.406920
 H        -4.242924        -2.027153         1.187475
 H        -2.622011        -2.516683         0.433472
 H        -3.058679        -2.329811         3.178845
 H        -1.073514        -1.114207         3.977404
 H        -0.418387         0.754002         2.662520
 H         0.202312        -0.368050         1.333051
