19
Iteration:  1621charge 0 multiplicity 1
 O        -0.954159         1.000101        -0.176131
 C        -1.637604         0.350653         0.867263
 C        -3.027966         0.949031         1.297521
 C        -2.917677        -0.386860         0.535343
 C        -3.209997        -1.735532         1.248564
 C        -2.354305        -2.084869         2.571295
 O        -0.982758        -2.521566         2.295406
 C        -1.272375        -1.181620         2.934621
 C        -0.693548        -0.127205         1.929180
 H        -0.632285         1.764440         0.300250
 H        -3.337834         0.781386         2.266041
 H        -3.632504         1.781854         0.839911
 H        -3.194162        -0.436331        -0.508924
 H        -4.303182        -1.660617         1.405496
 H        -3.000760        -2.525817         0.584399
 H        -2.920296        -2.595595         3.294576
 H        -0.922038        -1.177994         3.995596
 H        -0.502581         0.641410         2.641049
 H         0.204979        -0.541605         1.483767
