19
Iteration:   438charge 0 multiplicity 1
 O        -1.014573         1.214379        -0.281270
 C        -1.654830         0.351550         0.782314
 C        -3.009757         0.800244         1.194982
 C        -2.746154        -0.547303         0.515429
 C        -3.071941        -1.883864         1.262654
 C        -2.399750        -2.075888         2.578267
 O        -0.984700        -2.469444         2.580536
 C        -1.334150        -1.175809         2.867940
 C        -0.772136        -0.057251         1.976387
 H        -1.376583         2.046023        -0.004568
 H        -3.299232         0.753897         2.298640
 H        -3.651855         1.401444         0.497425
 H        -3.038953        -0.526207        -0.527425
 H        -4.098464        -1.659985         1.506522
 H        -2.926252        -2.719210         0.561340
 H        -2.982722        -2.487863         3.503627
 H        -1.102202        -0.812941         3.903324
 H        -0.366451         0.755024         2.660353
 H         0.105272        -0.515875         1.498375
