19
Iteration:  2145
 O        -0.917617         0.708074        -0.117657
 C        -1.602729         0.362490         0.980549
 C        -2.963725         1.061176         1.301843
 C        -2.971103        -0.423616         0.643254
 C        -3.391726        -1.647859         1.472881
 C        -2.293023        -2.104360         2.388474
 O        -0.964036        -2.428459         1.914614
 C        -1.180211        -1.288009         2.854431
 C        -0.736210         0.049322         2.210190
 H        -1.309449         0.662948        -0.970389
 H        -3.235181         1.419038         2.308913
 H        -3.154894         1.957632         0.826610
 H        -3.187556        -0.373521        -0.367277
 H        -4.269222        -1.309435         1.932897
 H        -3.591041        -2.429405         0.719717
 H        -2.699159        -2.979750         2.928671
 H        -0.723811        -1.485759         3.817425
 H        -0.915329         0.969627         2.812718
 H         0.268691         0.069667         1.834364
