19
Iteration:  3929
 O        -0.903076         0.933006        -0.231882
 C        -1.607273         0.374644         0.948661
 C        -2.994198         0.921459         1.306356
 C        -2.892831        -0.431424         0.544403
 C        -3.346159        -1.635074         1.473812
 C        -2.273433        -2.201036         2.436647
 O        -1.025644        -2.545034         2.041299
 C        -1.193439        -1.249924         2.892036
 C        -0.782677         0.035876         2.181186
 H        -1.238255         1.792049        -0.475129
 H        -3.084725         1.061041         2.370637
 H        -3.300089         1.730006         0.629111
 H        -2.993246        -0.258558        -0.524316
 H        -4.328187        -1.363907         1.915157
 H        -3.494662        -2.567407         0.762213
 H        -2.756444        -2.827230         3.253500
 H        -1.026043        -1.294693         3.943587
 H        -0.685365         0.962855         2.877343
 H         0.256693        -0.133975         1.710294
