19
Iteration:   162
 O        -0.958849         0.919643        -0.290779
 C        -1.648379         0.371316         0.827242
 C        -3.198852         0.852108         1.103142
 C        -2.783971        -0.501418         0.553035
 C        -3.098955        -1.809211         1.242390
 C        -2.304594        -2.119046         2.521594
 O        -0.974685        -2.428386         2.398472
 C        -1.247266        -1.148980         3.030839
 C        -0.853118         0.140069         2.123761
 H        -0.338883         1.568307         0.043139
 H        -3.552503         0.847590         2.121027
 H        -3.623265         1.484754         0.415961
 H        -2.983963        -0.525337        -0.603820
 H        -4.156558        -1.777505         1.593183
 H        -3.042535        -2.705162         0.569048
 H        -2.759542        -2.829123         3.229202
 H        -0.876335        -1.177321         4.032578
 H        -0.963146         0.922035         2.930949
 H         0.260520         0.006184         1.937661
