19
Iteration:  3256
 O        -0.778822         0.980960        -0.062428
 C        -1.643530         0.378580         1.001127
 C        -3.082821         0.873054         1.135326
 C        -2.805933        -0.516242         0.693049
 C        -3.423217        -1.581680         1.572999
 C        -2.286772        -2.049072         2.506743
 O        -1.093658        -2.486305         1.824830
 C        -1.092435        -1.309733         2.754946
 C        -0.807975         0.014579         2.211631
 H        -1.296116         0.938616        -0.925545
 H        -3.425708         1.137517         2.164323
 H        -3.316523         1.365000         0.241967
 H        -2.868963        -0.925475        -0.328598
 H        -4.362084        -1.151899         2.002489
 H        -3.711013        -2.409355         1.031126
 H        -2.470665        -2.747476         3.325068
 H        -0.789538        -1.579857         3.774678
 H        -0.950216         0.741126         3.024523
 H         0.275431         0.098571         1.793805
