19
Iteration:  4523
 O        -1.047857         1.109684        -0.189829
 C        -1.589039         0.350053         0.877766
 C        -2.907189         0.798192         1.405302
 C        -2.900348        -0.421524         0.597740
 C        -3.277939        -1.754667         1.190628
 C        -2.410905        -1.975601         2.506852
 O        -1.091450        -2.560973         2.300033
 C        -1.191805        -1.150297         2.821087
 C        -0.578812        -0.174076         2.018236
 H        -1.071834         2.047931        -0.099461
 H        -3.231198         0.446262         2.405637
 H        -3.439211         1.715376         1.118266
 H        -3.168251        -0.364654        -0.483758
 H        -4.354848        -1.797043         1.296803
 H        -2.983136        -2.574801         0.485820
 H        -2.967423        -2.494436         3.402672
 H        -0.967674        -0.957002         3.917654
 H        -0.177696         0.677078         2.659648
 H         0.265604        -0.452659         1.339803
