19
Iteration:  4066charge 0 multiplicity 1
 O        -0.908645         0.751198        -0.087012
 C        -1.676641         0.492388         1.043779
 C        -3.119160         0.946093         1.161178
 C        -2.885302        -0.413403         0.608266
 C        -3.235811        -1.605063         1.401874
 C        -2.300120        -2.029711         2.570961
 O        -1.109083        -2.511944         1.913985
 C        -1.017214        -1.354309         2.829305
 C        -0.771520         0.003245         2.140507
 H        -0.853208         1.706337        -0.377770
 H        -3.504333         0.853535         2.176222
 H        -3.495273         1.850353         0.675352
 H        -2.825776        -0.685903        -0.513947
 H        -4.338769        -1.556152         1.720502
 H        -3.249918        -2.431255         0.757932
 H        -2.741127        -2.433232         3.442526
 H        -0.502725        -1.444130         3.860133
 H        -0.983364         0.734971         3.001092
 H         0.253174         0.188545         1.766167
