19
Iteration:   724charge 0 multiplicity 1
 O        -0.868442         0.850302        -0.117737
 C        -1.670838         0.359789         0.915211
 C        -3.126752         0.928261         0.964002
 C        -2.797029        -0.492204         0.541293
 C        -3.184557        -1.664718         1.551197
 C        -2.224118        -2.134101         2.579507
 O        -0.971534        -2.463033         1.947570
 C        -1.111832        -1.232223         2.888800
 C        -1.064072         0.203786         2.326281
 H        -0.528382         0.087422        -0.679412
 H        -3.546186         1.104474         1.923781
 H        -3.458322         1.609425         0.157971
 H        -2.903681        -0.831544        -0.520422
 H        -4.214183        -1.392469         1.937514
 H        -3.411594        -2.503329         0.854695
 H        -2.644820        -2.794917         3.383076
 H        -0.657097        -1.343757         3.817155
 H        -1.585417         0.846162         3.028621
 H        -0.046543         0.493985         2.435629
