19
Iteration:  3750
 O        -1.068428         1.144038        -0.129679
 C        -1.630338         0.441573         0.861632
 C        -2.998546         0.900718         1.343497
 C        -2.872759        -0.369396         0.483234
 C        -3.109833        -1.702252         1.197576
 C        -2.426991        -1.983897         2.589780
 O        -1.122433        -2.727852         2.420818
 C        -1.114769        -1.320279         2.858162
 C        -0.662263        -0.137466         1.846752
 H        -1.276739         2.112517        -0.134097
 H        -3.234787         0.654423         2.380412
 H        -3.362960         1.889990         1.041378
 H        -3.320845        -0.422323        -0.492878
 H        -4.173246        -1.758264         1.422705
 H        -2.798796        -2.559021         0.513226
 H        -3.001023        -2.331858         3.450960
 H        -0.651536        -1.219615         3.864150
 H        -0.218737         0.655051         2.567648
 H         0.278288        -0.541107         1.381422
