19
Iteration:  4235charge 0 multiplicity 1
 O        -0.964372         0.971700        -0.086449
 C        -1.627529         0.365549         0.918901
 C        -3.094674         0.927717         1.292637
 C        -2.932138        -0.330473         0.627988
 C        -3.331286        -1.726834         1.243233
 C        -2.311601        -2.036611         2.492796
 O        -0.931922        -2.499890         2.267023
 C        -1.205584        -1.254788         2.863539
 C        -0.616498        -0.165280         1.903561
 H        -1.167564         1.951626        -0.196413
 H        -3.447677         0.962875         2.368971
 H        -3.298199         1.773107         0.644294
 H        -3.189997        -0.134320        -0.452013
 H        -4.314632        -1.619469         1.707982
 H        -3.532616        -2.618953         0.547968
 H        -2.806743        -2.680368         3.284652
 H        -0.963531        -1.215920         3.920629
 H        -0.218405         0.615138         2.555763
 H         0.123435        -0.844395         1.437436
