19
Iteration:  1136charge 0 multiplicity 1
 O        -1.191986         1.094300        -0.279033
 C        -1.647057         0.349539         0.937313
 C        -3.024248         0.822865         1.337659
 C        -2.853391        -0.460801         0.543905
 C        -2.955892        -1.783315         1.125716
 C        -2.427852        -1.880966         2.509129
 O        -1.140694        -2.560727         2.564789
 C        -1.171979        -1.205055         2.888563
 C        -0.612164        -0.133923         1.883377
 H        -0.779571         1.886750         0.101139
 H        -3.424464         0.739424         2.326065
 H        -3.557912         1.698802         0.888606
 H        -2.942206        -0.320010        -0.560878
 H        -3.940080        -2.259640         0.916096
 H        -2.284104        -2.539079         0.612664
 H        -3.031400        -2.288827         3.346841
 H        -1.051200        -1.013808         4.023351
 H        -0.245697         0.754544         2.505600
 H         0.282708        -0.603928         1.384290
