19
Iteration:  2453charge 0 multiplicity 1
 O        -0.874413         0.894058        -0.082301
 C        -1.607001         0.323671         0.951701
 C        -3.051277         0.911726         1.299509
 C        -2.901029        -0.435128         0.657898
 C        -3.388891        -1.664679         1.384714
 C        -2.332731        -2.059921         2.474039
 O        -0.994034        -2.418246         1.982578
 C        -1.175637        -1.262205         2.856080
 C        -0.714822         0.034203         2.083105
 H        -0.935183         0.569221        -0.965039
 H        -3.027659         0.940412         2.427029
 H        -3.415090         1.824890         0.868707
 H        -3.134427        -0.603901        -0.377460
 H        -4.380363        -1.419855         1.829512
 H        -3.665645        -2.520121         0.693613
 H        -2.787583        -2.769828         3.209938
 H        -0.861129        -1.371206         3.900874
 H        -0.639724         0.875758         2.729183
 H         0.209440        -0.214452         1.610053
