19
Iteration:  2220
 O        -0.954293         0.906701        -0.066941
 C        -1.621435         0.393219         1.011026
 C        -3.020112         0.949740         1.127023
 C        -2.845642        -0.532849         0.648350
 C        -3.501256        -1.542378         1.584094
 C        -2.336479        -2.016059         2.546787
 O        -1.012615        -2.496089         1.794217
 C        -1.076131        -1.382117         2.774437
 C        -0.717559        -0.028746         2.140257
 H         0.042009         0.818063         0.014758
 H        -3.305064         1.414493         2.087124
 H        -3.313966         1.652363         0.440475
 H        -3.072811        -0.657458        -0.359839
 H        -4.297115        -0.986330         2.151226
 H        -4.005030        -2.362614         0.960774
 H        -2.624944        -2.885455         3.304323
 H        -0.603850        -1.473618         3.738358
 H        -0.884176         0.806616         2.868439
 H         0.361613         0.101504         1.978244
