19
Iteration:   688charge 0 multiplicity 1
 O        -0.806990         0.705226         0.055952
 C        -1.669071         0.296399         0.959633
 C        -3.170384         0.877823         0.950616
 C        -2.840551        -0.566151         0.557879
 C        -3.306706        -1.718464         1.463882
 C        -2.305883        -2.107378         2.552515
 O        -0.913556        -2.234663         1.899640
 C        -1.163240        -1.155345         2.857094
 C        -0.882164         0.215044         2.306886
 H        -1.149170         0.695021        -0.875483
 H        -3.610039         1.042441         1.967820
 H        -3.462583         1.584909         0.227112
 H        -2.884133        -0.813437        -0.518202
 H        -4.296814        -1.392124         1.893867
 H        -3.460546        -2.706263         0.931148
 H        -2.478410        -2.922505         3.291883
 H        -0.760714        -1.308019         3.870870
 H        -1.078059         1.088537         3.032323
 H         0.180750         0.194056         1.924628
