19
Iteration:  2358charge 0 multiplicity 1
 O        -0.849962         0.752714        -0.107878
 C        -1.658895         0.345529         0.975118
 C        -2.986576         0.912947         1.202985
 C        -2.935132        -0.428856         0.643547
 C        -3.396191        -1.564256         1.523167
 C        -2.314361        -2.099850         2.501169
 O        -1.000137        -2.352796         1.859361
 C        -1.113967        -1.324172         2.813496
 C        -0.787598        -0.037810         2.173603
 H        -0.940716         1.723378        -0.079530
 H        -3.514113         1.075333         2.204281
 H        -3.092945         1.755699         0.536863
 H        -3.096575        -0.405694        -0.416494
 H        -4.302235        -1.255341         2.070795
 H        -3.768708        -2.354759         0.919624
 H        -2.608390        -2.809463         3.179026
 H        -0.625293        -1.412378         3.825499
 H        -0.961174         0.860120         2.847248
 H         0.235706        -0.135378         1.699088
