19
Iteration:  3133
 O        -0.854132         0.872526        -0.094953
 C        -1.683701         0.339431         0.951143
 C        -2.989872         1.041714         1.254155
 C        -2.908453        -0.403502         0.652908
 C        -3.375943        -1.666154         1.470711
 C        -2.283695        -2.092270         2.450066
 O        -1.074590        -2.510090         1.920209
 C        -1.064922        -1.270208         2.796868
 C        -0.801919         0.081769         2.178694
 H        -0.469725         0.129833        -0.641362
 H        -3.250038         0.831055         2.320007
 H        -3.523811         1.766370         0.589490
 H        -3.216527        -0.414184        -0.408456
 H        -4.298792        -1.591925         2.055527
 H        -3.507963        -2.488806         0.728087
 H        -2.858787        -2.721614         3.262822
 H        -0.804246        -1.441958         3.847967
 H        -0.792060         0.849725         2.998363
 H         0.292033         0.010077         1.798795
