19
Iteration:   693charge 0 multiplicity 1
 O        -0.833167         0.737956         0.023934
 C        -1.669918         0.287307         0.988240
 C        -3.128321         0.861719         0.970759
 C        -2.874493        -0.582819         0.542736
 C        -3.318514        -1.746927         1.452589
 C        -2.338562        -2.073412         2.559762
 O        -0.911383        -2.220725         1.909592
 C        -1.110707        -1.215052         2.847436
 C        -0.881569         0.237028         2.318198
 H        -1.085153         0.619608        -0.872685
 H        -3.434494         1.175171         1.945044
 H        -3.442553         1.565208         0.122512
 H        -2.815303        -1.004277        -0.477712
 H        -4.298454        -1.387575         1.779628
 H        -3.519383        -2.602666         0.825476
 H        -2.627720        -2.805033         3.331864
 H        -0.637115        -1.300896         3.840276
 H        -1.138870         0.964372         3.014489
 H         0.190726         0.380720         2.215355
