19
Iteration:  2706charge 0 multiplicity 1
 O        -1.033908         1.282286        -0.112787
 C        -1.602554         0.326210         0.826829
 C        -2.928841         0.837691         1.445902
 C        -2.899282        -0.503113         0.577018
 C        -3.211138        -1.765444         1.299410
 C        -2.420887        -1.917894         2.513697
 O        -1.206731        -2.622439         2.317394
 C        -1.143060        -1.219689         2.812942
 C        -0.555322        -0.159153         1.866855
 H        -0.472108         0.599902        -0.605765
 H        -3.315670         0.691811         2.503887
 H        -3.374367         1.691598         0.962249
 H        -3.362290        -0.225202        -0.408498
 H        -4.261222        -1.650893         1.379372
 H        -2.976479        -2.627895         0.624965
 H        -3.148455        -2.319063         3.312919
 H        -0.889731        -1.070015         3.875024
 H        -0.223430         0.695608         2.495710
 H         0.405114        -0.428380         1.297937
