19
Iteration:   244
 O        -1.099813         1.270789        -0.223590
 C        -1.672100         0.456715         0.814627
 C        -3.065394         0.773979         1.231528
 C        -2.725715        -0.546214         0.416448
 C        -3.057808        -1.812580         1.240380
 C        -2.311075        -2.152138         2.543756
 O        -0.999340        -2.520642         2.722680
 C        -1.384764        -1.099302         2.873577
 C        -0.710218        -0.112368         1.865613
 H        -0.344842         0.726477        -0.546997
 H        -3.423528         0.699865         2.342133
 H        -3.569292         1.638006         0.724505
 H        -2.814385        -0.506619        -0.656685
 H        -4.176010        -1.746832         1.500640
 H        -2.958650        -2.639809         0.520466
 H        -3.040459        -2.447944         3.320602
 H        -1.384125        -0.870329         3.967797
 H        -0.300665         0.653832         2.531272
 H         0.125396        -0.503953         1.310389
