19
Iteration:  1371charge 0 multiplicity 1
 O        -0.878607         0.859223        -0.086258
 C        -1.714835         0.460851         0.923810
 C        -3.102361         0.997133         1.014016
 C        -2.877747        -0.484035         0.569771
 C        -3.243717        -1.598457         1.515723
 C        -2.318968        -2.193163         2.532148
 O        -0.862783        -2.431704         2.018029
 C        -1.138762        -1.292149         2.877686
 C        -0.966410         0.063559         2.179909
 H        -0.164543         0.213924         0.068002
 H        -3.575964         1.114553         2.017660
 H        -3.357844         1.519805         0.120800
 H        -3.167294        -0.605731        -0.497291
 H        -4.192961        -1.477794         1.953050
 H        -3.490919        -2.499932         0.913003
 H        -2.778905        -2.926128         3.172137
 H        -0.777540        -1.430636         3.906869
 H        -0.991418         0.864064         2.913568
 H         0.124095         0.041417         1.978613
