19
Iteration:  2074charge 0 multiplicity 1
 O        -0.937003         1.028694        -0.173825
 C        -1.662131         0.397639         0.900506
 C        -3.015266         1.042633         1.148675
 C        -2.819967        -0.469417         0.604013
 C        -3.332603        -1.582436         1.561618
 C        -2.340808        -2.074389         2.584231
 O        -1.079410        -2.639486         2.052691
 C        -1.040328        -1.408963         2.765980
 C        -0.701211        -0.105132         2.143633
 H        -1.491666         1.629373        -0.637503
 H        -3.502959         1.197720         2.178091
 H        -3.232928         1.983789         0.580954
 H        -2.971531        -0.435483        -0.526995
 H        -4.355245        -1.266834         1.939713
 H        -3.373321        -2.399342         0.855310
 H        -3.023300        -2.668794         3.214154
 H        -0.646740        -1.581181         3.798193
 H        -1.119248         0.557986         2.847517
 H         0.341146         0.237150         1.997653
