19
Iteration:   180
 O        -0.882345         0.834561        -0.166700
 C        -1.756809         0.393573         0.884958
 C        -3.152435         0.794773         1.188266
 C        -2.878058        -0.530456         0.482208
 C        -3.049889        -1.847021         1.180299
 C        -2.411788        -1.923414         2.543884
 O        -0.958079        -2.450222         2.381159
 C        -1.165649        -1.119630         2.884476
 C        -0.849723         0.096161         2.126227
 H        -0.773611         1.776990        -0.256652
 H        -3.298754         0.797099         2.296255
 H        -3.689074         1.559504         0.581768
 H        -3.045582        -0.489492        -0.635012
 H        -4.098996        -2.127801         1.301766
 H        -2.442995        -2.588870         0.656842
 H        -2.894939        -2.283585         3.449463
 H        -0.966812        -1.002297         3.983287
 H        -0.957634         0.917647         2.830512
 H         0.193934         0.009251         1.696816
