19
Iteration:  3594
 O        -1.004030         1.139194        -0.120387
 C        -1.660014         0.351468         0.885083
 C        -2.956966         0.785424         1.458083
 C        -2.864968        -0.483719         0.553073
 C        -3.192344        -1.714222         1.233196
 C        -2.371494        -1.941044         2.456888
 O        -1.117685        -2.569168         2.374383
 C        -1.198276        -1.196729         2.767487
 C        -0.675689        -0.155872         1.842143
 H        -0.362212         1.690776         0.327991
 H        -3.009852         0.557893         2.551121
 H        -3.309275         1.714588         1.052304
 H        -3.566578        -0.369626        -0.269261
 H        -4.246891        -1.657486         1.284769
 H        -2.974245        -2.629255         0.617821
 H        -2.898077        -2.355035         3.316247
 H        -1.002456        -0.908514         3.759519
 H        -0.403542         0.787233         2.474782
 H         0.157444        -0.603809         1.286647
