19
Iteration:   531
 O        -0.974796         1.038014        -0.204022
 C        -1.714572         0.459438         0.862747
 C        -3.073426         0.896156         1.133926
 C        -2.764269        -0.562378         0.546670
 C        -3.189227        -1.779967         1.293473
 C        -2.333980        -2.064737         2.530414
 O        -0.854912        -2.508244         2.379454
 C        -1.233696        -1.197346         2.894870
 C        -0.891143         0.025946         2.108116
 H        -0.677723         0.253168        -0.763163
 H        -3.407525         1.033599         2.183473
 H        -3.610983         1.400132         0.408652
 H        -3.066147        -0.520787        -0.514024
 H        -4.216345        -1.738851         1.727698
 H        -3.052956        -2.712025         0.723791
 H        -2.825959        -2.664846         3.209398
 H        -1.145344        -0.972139         3.986531
 H        -1.082802         0.965640         2.787712
 H         0.178169         0.251253         1.822396
