19
Iteration:   749
 O        -0.846885         0.845900        -0.096527
 C        -1.718295         0.472428         0.950985
 C        -3.169208         0.978597         0.875396
 C        -2.867701        -0.489436         0.581299
 C        -3.363455        -1.682179         1.584011
 C        -2.227979        -2.194000         2.433009
 O        -0.830923        -2.468914         2.092470
 C        -1.066793        -1.250722         2.845308
 C        -1.016121         0.119767         2.227006
 H         0.068911         0.535638         0.088907
 H        -3.758568         1.273251         1.793631
 H        -3.406824         1.536034        -0.059206
 H        -2.952626        -0.780081        -0.459929
 H        -4.158851        -1.310361         2.253622
 H        -3.857107        -2.420845         0.976144
 H        -2.528101        -2.897981         3.194129
 H        -0.856431        -1.235296         3.999347
 H        -1.223017         0.771311         3.043528
 H         0.085456         0.135440         2.080462
