19
Iteration:  3036charge 0 multiplicity 1
 O        -0.860349         0.875485        -0.153363
 C        -1.661081         0.377580         1.012831
 C        -2.990537         0.922653         1.269977
 C        -2.967974        -0.402800         0.634913
 C        -3.384725        -1.686820         1.469616
 C        -2.327114        -2.069636         2.470824
 O        -1.083015        -2.427530         1.899624
 C        -1.091585        -1.263228         2.797940
 C        -0.738355         0.041184         2.182913
 H         0.029808         0.555215        -0.373556
 H        -3.402119         0.834140         2.322780
 H        -3.404872         1.594708         0.553363
 H        -3.294176        -0.426612        -0.392118
 H        -4.390683        -1.479182         1.950350
 H        -3.472731        -2.543766         0.837888
 H        -2.629745        -2.702604         3.274653
 H        -0.696154        -1.579396         3.776389
 H        -0.634827         0.818366         2.936293
 H         0.327939        -0.167003         1.912583
