19
Iteration:  1797charge 0 multiplicity 1
 O        -0.958526         1.111822        -0.203198
 C        -1.583808         0.378814         0.892459
 C        -2.929492         0.897839         1.508334
 C        -2.915151        -0.340353         0.561930
 C        -3.167444        -1.778672         1.088946
 C        -2.404510        -2.057784         2.545128
 O        -1.109193        -2.570657         2.477485
 C        -1.239169        -1.151234         2.860489
 C        -0.677288        -0.234848         1.829608
 H        -1.690712         1.637590        -0.512843
 H        -3.067050         0.733678         2.647302
 H        -3.481985         1.726469         1.104257
 H        -3.412035        -0.185764        -0.453575
 H        -4.240437        -2.075433         0.996164
 H        -2.612208        -2.420497         0.444909
 H        -3.016954        -2.392012         3.386332
 H        -1.027518        -0.949662         3.923578
 H        -0.057638         0.512109         2.256457
 H         0.099340        -0.717324         1.203611
