19
Iteration:  4218
 O        -0.888444         1.004031        -0.173197
 C        -1.732574         0.387897         0.916146
 C        -2.972733         0.958536         1.337141
 C        -2.929180        -0.452219         0.588328
 C        -3.282966        -1.686922         1.385587
 C        -2.328189        -2.130822         2.390100
 O        -0.978745        -2.549585         2.265225
 C        -1.194607        -1.212051         2.809760
 C        -0.706412        -0.115034         2.004975
 H        -1.264073         1.926626        -0.028111
 H        -3.218324         0.992926         2.402424
 H        -3.434471         1.742354         0.766312
 H        -3.201684        -0.506990        -0.462628
 H        -4.243091        -1.490978         1.916431
 H        -3.387301        -2.402029         0.574541
 H        -2.915556        -2.723910         3.160939
 H        -1.067765        -1.169418         3.900557
 H        -0.367197         0.780763         2.557676
 H         0.147468        -0.328153         1.371581
