19
Iteration:  1159
 O        -1.118555         1.046286        -0.308916
 C        -1.663591         0.501809         0.898447
 C        -3.002108         0.971588         1.356395
 C        -2.802307        -0.452007         0.575384
 C        -3.042747        -1.916016         1.150017
 C        -2.360419        -2.117164         2.438425
 O        -1.058222        -2.645851         2.619350
 C        -1.279119        -1.144407         2.834268
 C        -0.685020        -0.000734         1.937156
 H        -0.837493         1.961986        -0.142463
 H        -3.235003         1.148844         2.426547
 H        -3.430137         1.715597         0.672777
 H        -3.285671        -0.156985        -0.364388
 H        -4.137315        -2.013787         1.158557
 H        -2.758301        -2.828175         0.528614
 H        -2.977625        -2.503756         3.282914
 H        -1.095901        -0.952313         3.983824
 H        -0.155597         0.754173         2.583351
 H         0.165188        -0.563382         1.446198
