19
Iteration:  3932charge 0 multiplicity 1
 O        -0.890101         0.923923        -0.241426
 C        -1.612509         0.376283         0.945782
 C        -2.983316         0.936107         1.299092
 C        -2.912245        -0.408955         0.553687
 C        -3.304301        -1.671424         1.450100
 C        -2.293908        -2.195346         2.482472
 O        -1.032326        -2.524119         2.012618
 C        -1.192129        -1.274984         2.902055
 C        -0.791773         0.044209         2.171828
 H        -1.257970         1.797504        -0.447693
 H        -3.080002         1.012823         2.454308
 H        -3.315373         1.710859         0.636421
 H        -3.041129        -0.338869        -0.480250
 H        -4.276057        -1.361421         1.918227
 H        -3.418109        -2.498843         0.838919
 H        -2.836560        -2.801896         3.263254
 H        -1.041050        -1.360007         4.026085
 H        -0.711717         0.924638         2.865950
 H         0.229753        -0.069562         1.732773
