19
Iteration:  3744charge 0 multiplicity 1
 O        -1.095324         1.157340        -0.124744
 C        -1.634056         0.414490         0.886848
 C        -2.959159         0.893980         1.365396
 C        -2.857121        -0.368245         0.483034
 C        -3.089508        -1.737115         1.209098
 C        -2.401234        -1.997834         2.575384
 O        -1.159196        -2.712577         2.402552
 C        -1.135242        -1.286294         2.857560
 C        -0.618059        -0.151888         1.853339
 H        -1.257924         2.097981        -0.047744
 H        -3.351303         0.666026         2.359231
 H        -3.407122         1.744997         0.860570
 H        -3.242547        -0.331716        -0.591926
 H        -4.174624        -1.606845         1.467986
 H        -2.919177        -2.614304         0.632544
 H        -3.058396        -2.314255         3.396750
 H        -0.763960        -1.027898         3.840545
 H        -0.243923         0.648958         2.455947
 H         0.225795        -0.499073         1.236498
