19
Iteration:   342charge 0 multiplicity 1
 O        -1.169407         1.180425        -0.261822
 C        -1.589348         0.261489         0.827504
 C        -2.896929         0.857800         1.301470
 C        -2.833350        -0.500809         0.535825
 C        -2.989786        -1.867352         1.065983
 C        -2.400227        -2.151499         2.488785
 O        -1.034986        -2.420923         2.788562
 C        -1.358328        -1.100428         2.885125
 C        -0.714840        -0.145334         1.851879
 H        -1.226240         2.134841        -0.089934
 H        -3.170663         0.997449         2.430843
 H        -3.263229         1.575448         0.595225
 H        -3.095962        -0.246126        -0.502385
 H        -4.091086        -2.110191         1.054150
 H        -2.416662        -2.431944         0.319802
 H        -3.145806        -2.559584         3.192206
 H        -1.319932        -0.745962         3.929608
 H        -0.368304         0.792232         2.384637
 H         0.162747        -0.714201         1.610919
