19
Iteration:  3018
 O        -1.026906         0.830936        -0.131279
 C        -1.649916         0.316384         1.000416
 C        -2.956642         1.024139         1.258273
 C        -2.867778        -0.362088         0.753325
 C        -3.316360        -1.692906         1.375811
 C        -2.339109        -2.053384         2.429521
 O        -1.024767        -2.419224         1.949659
 C        -1.152532        -1.338045         2.820720
 C        -0.739695         0.023787         2.170979
 H        -0.472248         0.113246        -0.532399
 H        -3.062339         1.246195         2.297642
 H        -3.146837         1.870817         0.548282
 H        -3.068751        -0.402658        -0.364491
 H        -4.361607        -1.438420         1.713562
 H        -3.354998        -2.564929         0.642386
 H        -2.676036        -2.862208         3.150787
 H        -0.692648        -1.416033         3.814968
 H        -0.993614         0.880107         2.833923
 H         0.320358         0.065499         1.906304
