19
Iteration:  3595
 O        -1.006203         1.130462        -0.116132
 C        -1.670476         0.348072         0.886471
 C        -2.942845         0.787964         1.464258
 C        -2.868453        -0.470817         0.543004
 C        -3.194400        -1.717884         1.233320
 C        -2.362769        -1.951338         2.449863
 O        -1.120130        -2.570134         2.381113
 C        -1.207063        -1.194428         2.764917
 C        -0.672865        -0.141742         1.841752
 H        -0.370523         1.704439         0.313048
 H        -2.979033         0.556754         2.573777
 H        -3.331392         1.701300         1.036191
 H        -3.542277        -0.382291        -0.255981
 H        -4.233248        -1.633429         1.272408
 H        -2.955338        -2.635120         0.619768
 H        -2.901038        -2.364571         3.312031
 H        -0.971591        -0.890307         3.748605
 H        -0.415631         0.779521         2.469928
 H         0.147197        -0.628616         1.285176
