19
Iteration:  3167
 O        -0.962527         0.790738        -0.176024
 C        -1.628004         0.281110         0.938265
 C        -2.904857         1.027471         1.283545
 C        -2.936712        -0.389818         0.721292
 C        -3.289887        -1.648213         1.474874
 C        -2.299424        -2.095218         2.397356
 O        -1.003980        -2.352561         1.868146
 C        -1.237237        -1.296897         2.866340
 C        -0.819211         0.006851         2.233411
 H        -0.053396         0.398375        -0.292711
 H        -3.229387         1.158912         2.323503
 H        -3.326087         1.901393         0.670858
 H        -3.290192        -0.376222        -0.350656
 H        -4.289899        -1.644666         1.941264
 H        -3.371794        -2.352922         0.666678
 H        -2.702951        -2.908079         3.132135
 H        -0.886419        -1.374607         3.889865
 H        -0.842438         0.892367         2.914230
 H         0.243776        -0.234525         1.856379
