19
Iteration:  3908
 O        -0.967537         0.940250        -0.110882
 C        -1.611451         0.377875         0.998369
 C        -3.003334         0.959476         1.194665
 C        -2.890928        -0.439978         0.616926
 C        -3.337744        -1.624013         1.389148
 C        -2.390156        -2.101716         2.433011
 O        -0.910353        -2.505920         2.144564
 C        -1.169544        -1.350245         2.797919
 C        -0.701524        -0.055293         2.047465
 H        -1.297298         1.886428        -0.160220
 H        -3.412281         0.777616         2.192444
 H        -3.420429         1.715776         0.506918
 H        -2.927864        -0.614825        -0.436122
 H        -4.018027        -1.101978         2.113986
 H        -3.879370        -2.378077         0.795950
 H        -2.996955        -2.626409         3.221620
 H        -1.044483        -1.355820         3.900245
 H        -0.625792         0.781027         2.847315
 H         0.340123        -0.142484         1.561933
