19
Iteration:  1769charge 0 multiplicity 1
 O        -1.161051         1.168632        -0.224597
 C        -1.554031         0.346143         0.897292
 C        -3.035898         0.875774         1.416391
 C        -2.775002        -0.382969         0.551001
 C        -3.124220        -1.759655         1.116001
 C        -2.408948        -1.952923         2.557891
 O        -1.202093        -2.673580         2.506978
 C        -1.177714        -1.226984         2.785360
 C        -0.533894        -0.211536         1.879429
 H        -0.866276         1.956726         0.267582
 H        -2.977277         0.863345         2.497404
 H        -3.467366         1.757173         0.781817
 H        -3.216292        -0.362429        -0.441228
 H        -4.204040        -1.734822         1.242816
 H        -2.684175        -2.631053         0.499061
 H        -3.092338        -1.975587         3.431939
 H        -1.134010        -1.037568         3.858900
 H        -0.119209         0.643605         2.524906
 H         0.283071        -0.569511         1.199857
