19
Iteration:  2073charge 0 multiplicity 1
 O        -0.944508         1.033926        -0.175754
 C        -1.659126         0.385016         0.904526
 C        -3.013485         1.048604         1.142682
 C        -2.819795        -0.471204         0.589745
 C        -3.320908        -1.574995         1.563571
 C        -2.351187        -2.077968         2.586651
 O        -1.078219        -2.642521         2.052310
 C        -1.032301        -1.412128         2.774180
 C        -0.705153        -0.104798         2.146872
 H        -1.465708         1.655857        -0.649936
 H        -3.533103         1.179615         2.207365
 H        -3.229712         1.977573         0.590665
 H        -2.994720        -0.421324        -0.507516
 H        -4.361016        -1.253469         1.926748
 H        -3.392345        -2.386890         0.861258
 H        -2.993372        -2.665743         3.223578
 H        -0.657884        -1.589701         3.814941
 H        -1.115044         0.577619         2.873147
 H         0.343882         0.234240         1.948637
