19
Iteration:  2183
 O        -0.845847         0.869324        -0.150779
 C        -1.716597         0.460940         0.919678
 C        -3.061939         1.096690         1.161960
 C        -2.932699        -0.321739         0.690938
 C        -3.311589        -1.586021         1.515265
 C        -2.281425        -2.138670         2.560420
 O        -1.026774        -2.602696         1.868779
 C        -1.044844        -1.367032         2.872673
 C        -0.836413        -0.010507         2.181348
 H        -0.841181         0.075636        -0.789141
 H        -3.179035         1.272924         2.223139
 H        -3.311895         1.842543         0.306786
 H        -3.239296        -0.375868        -0.425457
 H        -4.299337        -1.381065         2.048404
 H        -3.508224        -2.500136         0.978294
 H        -2.636759        -2.962992         3.188634
 H        -0.494324        -1.575967         3.811437
 H        -1.156227         0.587930         3.084650
 H         0.263394         0.240418         2.066557
