19
Iteration:  1374charge 0 multiplicity 1
 O        -0.872249         0.867655        -0.084971
 C        -1.711223         0.441790         0.936404
 C        -3.102351         0.993143         0.980080
 C        -2.887564        -0.477822         0.600079
 C        -3.251607        -1.601428         1.474294
 C        -2.303446        -2.207058         2.542581
 O        -0.870783        -2.426553         2.018777
 C        -1.126285        -1.302903         2.887329
 C        -0.954041         0.071445         2.176272
 H        -0.098543         0.335447         0.126735
 H        -3.651007         1.177162         1.989170
 H        -3.413771         1.663603         0.163066
 H        -3.177681        -0.673154        -0.436963
 H        -4.271977        -1.410947         2.010971
 H        -3.600601        -2.509852         0.929423
 H        -2.725715        -3.010578         3.278603
 H        -0.785058        -1.387298         3.882715
 H        -1.019185         0.878678         2.878024
 H         0.083085        -0.029367         1.883301
