19
Iteration:   818
 O        -0.881412         0.756454        -0.160163
 C        -1.623651         0.468129         0.988501
 C        -3.058838         0.874385         1.100046
 C        -2.851778        -0.556747         0.603878
 C        -3.334963        -1.780233         1.405779
 C        -2.268998        -2.078080         2.503877
 O        -1.060057        -2.417591         2.027299
 C        -1.065646        -1.202567         2.763465
 C        -0.931864         0.238730         2.276160
 H        -0.001521         1.090142         0.074881
 H        -3.376074         1.203429         2.093052
 H        -3.555122         1.358015         0.232339
 H        -3.062808        -0.589737        -0.485424
 H        -4.261767        -1.759920         1.934967
 H        -3.287339        -2.685412         0.766751
 H        -2.533657        -2.512333         3.495755
 H        -0.697811        -1.506800         3.898246
 H        -1.246893         0.878458         3.161633
 H         0.119917         0.627239         2.058881
