19
Iteration:   981charge 0 multiplicity 1
 O        -1.114832         1.207471        -0.317232
 C        -1.638295         0.325608         0.845065
 C        -3.070536         0.834910         1.363209
 C        -2.840025        -0.388924         0.445533
 C        -3.046623        -1.768964         1.143915
 C        -2.384756        -2.069818         2.571320
 O        -0.944592        -2.543770         2.576476
 C        -1.340889        -1.201091         3.002937
 C        -0.697723        -0.185060         1.886160
 H        -0.466182         1.773285         0.158488
 H        -3.358571         0.640091         2.408387
 H        -3.318417         1.740717         0.857941
 H        -3.048824        -0.427319        -0.616500
 H        -4.152070        -1.725972         1.291337
 H        -2.762965        -2.442839         0.334998
 H        -2.912201        -2.539468         3.387428
 H        -1.343248        -0.828794         4.025299
 H        -0.081137         0.600060         2.286117
 H         0.019985        -0.874465         1.444130
