19
Iteration:    99charge 0 multiplicity 1
 O        -0.765940         0.914352         0.006845
 C        -1.749465         0.431619         0.893407
 C        -3.210672         0.799439         0.906327
 C        -2.755138        -0.639332         0.435804
 C        -3.198446        -1.795425         1.461089
 C        -2.278373        -1.966105         2.591198
 O        -0.958644        -2.370155         2.117727
 C        -1.147581        -1.146520         2.914679
 C        -0.964703         0.118142         2.243191
 H        -0.869926         0.450256        -0.816098
 H        -3.874577         0.747020         1.777414
 H        -3.711889         1.426220         0.246181
 H        -2.884846        -0.865737        -0.599779
 H        -4.275220        -1.777069         1.766545
 H        -3.090378        -2.767372         0.963748
 H        -2.789067        -2.572911         3.318229
 H        -0.668004        -1.096677         3.887909
 H        -1.200474         0.908267         2.911527
 H         0.028133         0.319755         2.024711
