19
Iteration:   132
 O        -1.057972         1.015327        -0.116549
 C        -1.661433         0.346955         0.903255
 C        -3.055632         0.911295         0.920617
 C        -2.738311        -0.643627         0.495052
 C        -3.303331        -1.789305         1.356321
 C        -2.286326        -2.132131         2.454097
 O        -0.837914        -2.332519         2.340108
 C        -1.285835        -1.153412         2.986724
 C        -0.851348         0.062793         2.152727
 H        -0.156225         0.615867        -0.272301
 H        -3.734293         0.891055         1.779245
 H        -3.251180         1.554823         0.082226
 H        -2.772358        -0.763366        -0.546838
 H        -4.148289        -1.476958         2.030224
 H        -3.511560        -2.697202         0.787437
 H        -2.556917        -2.839605         3.247017
 H        -1.096372        -1.087442         4.083049
 H        -0.993365         0.814216         2.931075
 H         0.147768        -0.065582         1.895941
