19
Iteration:  2767charge 0 multiplicity 1
 O        -1.004700         1.214205        -0.033849
 C        -1.699551         0.407328         0.904505
 C        -3.017165         0.974590         1.248204
 C        -2.856063        -0.428351         0.578769
 C        -3.232227        -1.652577         1.316006
 C        -2.370920        -2.060913         2.569525
 O        -1.075904        -2.664710         2.322588
 C        -1.149066        -1.268731         2.770176
 C        -0.661556        -0.163689         1.845910
 H        -0.278619         0.647522        -0.415686
 H        -3.436782         0.795605         2.181034
 H        -3.394649         1.821720         0.628485
 H        -3.204903        -0.458650        -0.419188
 H        -4.310317        -1.584254         1.789489
 H        -3.201798        -2.606304         0.711719
 H        -2.793602        -2.564610         3.428831
 H        -0.811462        -1.185053         3.788576
 H        -0.036383         0.583236         2.365725
 H        -0.003779        -0.831140         1.348873
