19
Iteration:  1857charge 0 multiplicity 1
 O        -1.164952         1.216396        -0.234428
 C        -1.603043         0.383183         0.934935
 C        -2.922686         0.937383         1.378017
 C        -2.873775        -0.403157         0.624182
 C        -3.114117        -1.706107         1.232913
 C        -2.447079        -1.966287         2.491337
 O        -1.152640        -2.649727         2.408410
 C        -1.168945        -1.288930         2.843745
 C        -0.571278        -0.217477         1.885434
 H        -0.214241         0.929074        -0.269765
 H        -3.379506         0.823803         2.359152
 H        -3.496804         1.747603         0.844661
 H        -3.139247        -0.383064        -0.393432
 H        -4.194964        -1.868919         1.329613
 H        -2.656552        -2.435155         0.461694
 H        -3.011707        -2.482829         3.312022
 H        -0.978333        -0.975955         3.867328
 H        -0.178445         0.591015         2.605361
 H         0.135771        -0.777319         1.236380
