19
Iteration:  2769
 O        -1.000309         1.206687        -0.036403
 C        -1.705969         0.407728         0.911301
 C        -2.995407         0.980838         1.264692
 C        -2.851780        -0.428682         0.578144
 C        -3.254370        -1.668613         1.306108
 C        -2.378530        -2.045990         2.577067
 O        -1.063595        -2.651465         2.321293
 C        -1.148852        -1.284690         2.762230
 C        -0.675879        -0.154712         1.841333
 H        -0.266493         0.635675        -0.416950
 H        -3.418895         0.805499         2.249428
 H        -3.355669         1.736417         0.622842
 H        -3.210178        -0.507676        -0.452205
 H        -4.315635        -1.554939         1.793676
 H        -3.137679        -2.575348         0.704076
 H        -2.839426        -2.646948         3.436422
 H        -0.852268        -1.191373         3.773754
 H        -0.096759         0.672413         2.338399
 H         0.044431        -0.825362         1.326802
