19
Iteration:  1937
 O        -0.897728         1.012828        -0.119620
 C        -1.706066         0.447577         0.900674
 C        -2.988391         0.950519         1.335595
 C        -2.913400        -0.329654         0.628405
 C        -3.241620        -1.672536         1.318469
 C        -2.365116        -2.087716         2.537949
 O        -1.040051        -2.547239         2.218843
 C        -1.191587        -1.273659         2.888754
 C        -0.728057        -0.187147         1.912527
 H        -1.473346         1.090606        -0.926030
 H        -3.207737         0.923346         2.378402
 H        -3.159793         1.823798         0.707494
 H        -3.283857        -0.368271        -0.462418
 H        -4.332806        -1.858485         1.466626
 H        -2.795882        -2.378144         0.533651
 H        -2.865487        -2.644163         3.376302
 H        -0.706885        -1.059207         3.857287
 H        -0.294430         0.639813         2.593347
 H         0.140672        -0.692721         1.444412
