19
Iteration:  3032charge 0 multiplicity 1
 O        -0.898255         0.868512        -0.149987
 C        -1.635595         0.327522         0.995243
 C        -2.996948         0.948741         1.300145
 C        -2.953018        -0.429619         0.654476
 C        -3.366067        -1.648956         1.450284
 C        -2.347081        -2.089791         2.447760
 O        -1.073965        -2.412671         1.905572
 C        -1.081346        -1.237352         2.791654
 C        -0.734931         0.030309         2.191036
 H        -0.041167         0.437374        -0.385535
 H        -3.398850         1.059579         2.325635
 H        -3.388719         1.583999         0.495028
 H        -3.232180        -0.427057        -0.391735
 H        -4.310531        -1.627027         1.948224
 H        -3.444838        -2.468806         0.658415
 H        -2.779124        -2.689961         3.390647
 H        -0.746280        -1.569605         3.762122
 H        -0.651076         0.776687         3.021562
 H         0.330520        -0.081051         1.926550
