19
Iteration:  1481
 O        -0.884505         0.753687        -0.131869
 C        -1.682549         0.425222         0.940799
 C        -2.982971         1.069036         1.088348
 C        -2.999360        -0.380254         0.548834
 C        -3.249016        -1.733548         1.376775
 C        -2.266380        -2.200983         2.494742
 O        -0.862140        -2.430635         2.079369
 C        -1.230811        -1.311358         2.947176
 C        -0.924222         0.045472         2.253135
 H        -1.134646         1.605301        -0.547964
 H        -3.333081         1.324739         2.132112
 H        -3.342357         1.821383         0.359539
 H        -3.131920        -0.411584        -0.533168
 H        -4.145355        -1.622826         1.959209
 H        -3.202697        -2.593249         0.687295
 H        -2.714693        -2.890766         3.179694
 H        -0.915561        -1.181295         3.990016
 H        -0.774389         0.966335         2.918602
 H         0.077234        -0.067808         1.713528
