19
Iteration:  4712
 O        -1.005409         1.030691        -0.225504
 C        -1.709814         0.403605         0.920819
 C        -3.049032         0.982856         1.219529
 C        -2.811960        -0.462672         0.627548
 C        -3.165496        -1.727056         1.413312
 C        -2.359392        -2.043726         2.568031
 O        -1.091622        -2.692456         2.110158
 C        -1.068345        -1.336305         2.747679
 C        -0.796579         0.064775         2.144473
 H        -0.463590         1.765841         0.078344
 H        -3.383048         1.102315         2.271913
 H        -3.293555         1.800081         0.595590
 H        -2.989263        -0.552310        -0.444846
 H        -4.132036        -1.581408         1.834972
 H        -3.232603        -2.362580         0.544564
 H        -2.819659        -2.437726         3.434437
 H        -0.559041        -1.438018         3.729699
 H        -0.934957         0.703902         3.081352
 H         0.287216         0.091729         1.830734
