19
Iteration:  3323charge 0 multiplicity 1
 O        -0.777894         0.719009        -0.157753
 C        -1.665071         0.401845         0.933288
 C        -2.991465         1.149926         1.200349
 C        -2.994304        -0.379150         0.713468
 C        -3.370941        -1.697054         1.497990
 C        -2.253756        -2.291001         2.446481
 O        -0.932345        -2.492748         1.940896
 C        -1.125078        -1.276548         2.757268
 C        -0.954418         0.094325         2.228327
 H        -1.012287         1.544733        -0.595990
 H        -3.081535         1.320447         2.316761
 H        -3.363978         1.817280         0.406276
 H        -3.176117        -0.247920        -0.425515
 H        -4.312632        -1.616815         2.124007
 H        -3.627814        -2.382477         0.751875
 H        -2.530685        -2.859198         3.338976
 H        -0.925611        -1.302289         3.881455
 H        -1.116121         0.832336         3.051420
 H         0.186454         0.322901         2.100831
