19
Iteration:  3049
 O        -0.856251         0.952242        -0.117846
 C        -1.604989         0.430542         0.914529
 C        -3.055336         0.935895         1.216091
 C        -2.933162        -0.510668         0.609716
 C        -3.396257        -1.647843         1.507799
 C        -2.353981        -2.060465         2.547373
 O        -1.056263        -2.456910         1.885197
 C        -1.102174        -1.342857         2.830906
 C        -0.766764         0.002243         2.121765
 H        -0.116956         0.456679         0.251382
 H        -3.164978         0.968534         2.301243
 H        -3.422164         1.971305         0.999938
 H        -2.999061        -0.567359        -0.521546
 H        -4.338440        -1.353666         2.103104
 H        -3.696429        -2.557923         0.990899
 H        -2.674294        -2.800223         3.179828
 H        -0.517657        -1.411988         3.771648
 H        -0.753597         0.845059         2.819307
 H         0.237515        -0.062957         1.650461
