19
Iteration:  1233
 O        -1.042121         1.020172        -0.256190
 C        -1.653017         0.483186         0.969847
 C        -3.109667         0.765623         1.202053
 C        -2.762629        -0.549855         0.512741
 C        -3.136342        -1.753411         1.323261
 C        -2.469698        -1.958289         2.607179
 O        -1.055047        -2.549551         2.214274
 C        -1.150084        -1.247146         2.896469
 C        -0.640687         0.052522         2.104412
 H        -0.463802         1.769982        -0.081621
 H        -3.741140         0.841213         2.083287
 H        -3.530676         1.456169         0.501298
 H        -2.897082        -0.462549        -0.583963
 H        -4.246471        -1.663407         1.380875
 H        -3.104992        -2.662980         0.753879
 H        -2.884051        -2.529177         3.463229
 H        -0.906301        -1.230257         3.935988
 H        -0.530663         0.789078         2.955302
 H         0.328114        -0.258950         1.685909
