19
Iteration:   721charge 0 multiplicity 1
 O        -0.869548         0.845057        -0.119350
 C        -1.634155         0.345370         0.933300
 C        -3.116368         0.920280         0.963437
 C        -2.785891        -0.485553         0.532928
 C        -3.222842        -1.688736         1.556537
 C        -2.198052        -2.099240         2.553848
 O        -0.996762        -2.448633         1.944090
 C        -1.094702        -1.234238         2.886667
 C        -1.079451         0.190974         2.333137
 H        -0.634960         0.151830        -0.741229
 H        -3.637706         1.074056         1.928948
 H        -3.407200         1.573867         0.197704
 H        -2.992258        -0.833098        -0.476144
 H        -4.250344        -1.435777         1.884066
 H        -3.359933        -2.596083         0.890047
 H        -2.597082        -2.771779         3.345229
 H        -0.679772        -1.255963         3.902637
 H        -1.565472         0.901870         3.115866
 H        -0.022333         0.556321         2.449067
