19
Iteration:  2428charge 0 multiplicity 1
 O        -0.930098         1.027667        -0.120848
 C        -1.623154         0.407674         0.977332
 C        -3.015781         0.972984         1.160948
 C        -2.934335        -0.424446         0.572777
 C        -3.271190        -1.618539         1.474940
 C        -2.279858        -2.078256         2.564496
 O        -1.075513        -2.543871         1.993453
 C        -1.061548        -1.373673         2.852185
 C        -0.802882        -0.051428         2.130892
 H        -0.603115         0.453325        -0.797251
 H        -3.382658         1.183082         2.185132
 H        -3.241510         1.782706         0.413998
 H        -3.304545        -0.690816        -0.455920
 H        -4.236405        -1.419062         2.004768
 H        -3.591970        -2.485061         0.839252
 H        -2.817828        -2.788616         3.334335
 H        -0.721506        -1.418955         3.888134
 H        -0.960955         0.684857         2.964675
 H         0.224010         0.041802         1.672492
