19
Iteration:   237charge 0 multiplicity 1
 O        -1.044844         1.264242        -0.266663
 C        -1.664282         0.445779         0.891448
 C        -3.049818         0.761131         1.220937
 C        -2.726745        -0.512140         0.479692
 C        -3.048216        -1.809607         1.219370
 C        -2.334419        -2.122352         2.534148
 O        -0.969257        -2.525711         2.678343
 C        -1.392200        -1.109495         2.899096
 C        -0.805281        -0.077873         1.905723
 H        -0.616409         0.663214        -0.971699
 H        -3.429582         0.374293         2.156260
 H        -3.478519         1.591794         0.800372
 H        -2.958775        -0.620781        -0.684462
 H        -4.087253        -1.834305         1.429163
 H        -3.028745        -2.692116         0.549579
 H        -2.912991        -2.408591         3.395195
 H        -1.422757        -0.730430         3.899493
 H        -0.258351         0.631786         2.516487
 H         0.075533        -0.590330         1.351229
