19
Iteration:   775
 O        -0.962255         0.829262        -0.071624
 C        -1.723773         0.314731         1.002148
 C        -3.037828         0.898011         0.880795
 C        -2.943435        -0.557412         0.528080
 C        -3.281206        -1.637577         1.519285
 C        -2.278525        -2.118791         2.426590
 O        -0.895072        -2.288144         2.020094
 C        -1.108026        -1.241645         2.968584
 C        -0.901323         0.079043         2.245911
 H        -0.061048         0.982324         0.279315
 H        -3.523857         1.188024         1.806098
 H        -3.073780         1.574621         0.040965
 H        -3.064617        -0.852108        -0.522696
 H        -4.037772        -1.190102         2.147570
 H        -3.788683        -2.525772         1.070123
 H        -2.618207        -3.025548         2.942692
 H        -0.605875        -1.371201         4.001272
 H        -1.006638         0.898501         3.050260
 H         0.190716        -0.078124         1.962302
