19
Iteration:  4062
 O        -0.896237         0.760010        -0.086698
 C        -1.726216         0.473221         1.055539
 C        -3.102165         0.929238         1.151894
 C        -2.870763        -0.407367         0.570598
 C        -3.265997        -1.605037         1.448472
 C        -2.304582        -2.027863         2.582482
 O        -1.087958        -2.497427         1.915257
 C        -1.001109        -1.304589         2.782998
 C        -0.781973        -0.029608         2.155608
 H        -0.777153         1.678150        -0.284377
 H        -3.385644         0.925923         2.228328
 H        -3.587973         1.832715         0.640668
 H        -2.861503        -0.602455        -0.480199
 H        -4.364209        -1.549575         1.595596
 H        -3.285112        -2.478659         0.685946
 H        -2.736435        -2.514494         3.523791
 H        -0.648201        -1.507398         3.796899
 H        -0.852854         0.683553         3.056957
 H         0.285969         0.079010         1.818085
