19
Iteration:  1575
 O        -1.033693         1.152570        -0.102936
 C        -1.618727         0.399193         0.971032
 C        -3.054937         0.863053         1.114659
 C        -2.792984        -0.480400         0.528576
 C        -3.292384        -1.706797         1.394024
 C        -2.319312        -2.046978         2.546690
 O        -1.073510        -2.593036         2.258217
 C        -1.150093        -1.268719         2.838519
 C        -0.720094        -0.023745         2.020348
 H        -0.355798         0.575639        -0.456847
 H        -3.630935         0.899413         2.090196
 H        -3.209249         1.720671         0.539187
 H        -2.673511        -0.617119        -0.568642
 H        -4.317313        -1.500801         1.744614
 H        -3.113311        -2.478213         0.676704
 H        -2.925312        -2.620875         3.283345
 H        -0.939513        -1.289972         3.939809
 H        -0.549689         0.874045         2.610366
 H         0.211539        -0.245534         1.513683
