19
Iteration:  2644
 O        -1.058141         1.075952        -0.202716
 C        -1.718965         0.458659         0.981853
 C        -2.928444         1.106814         1.375271
 C        -2.982130        -0.276271         0.684074
 C        -3.194453        -1.749261         1.123305
 C        -2.415812        -2.055089         2.426164
 O        -0.979345        -2.654171         2.414454
 C        -1.174395        -1.273686         2.889723
 C        -0.615331        -0.235395         1.935182
 H        -0.846597         0.446699        -0.963034
 H        -3.056209         1.034841         2.549529
 H        -3.361580         1.885227         0.781406
 H        -3.350720        -0.358727        -0.383654
 H        -4.262598        -2.200741         1.153954
 H        -2.766085        -2.449174         0.318991
 H        -2.907234        -2.590743         3.167279
 H        -0.937819        -1.090131         4.017829
 H        -0.231037         0.511448         2.609364
 H         0.075332        -0.546641         1.204047
