19
Iteration:  2144charge 0 multiplicity 1
 O        -0.911106         0.707835        -0.117912
 C        -1.606106         0.353664         0.983458
 C        -2.968361         1.060456         1.311192
 C        -2.976443        -0.430701         0.634848
 C        -3.389324        -1.638235         1.471227
 C        -2.303232        -2.094995         2.384925
 O        -0.958912        -2.421854         1.912790
 C        -1.173488        -1.293716         2.862037
 C        -0.738148         0.058132         2.211161
 H        -1.293797         0.682485        -0.960810
 H        -3.216142         1.398113         2.293409
 H        -3.161975         1.952086         0.802279
 H        -3.234819        -0.387893        -0.376079
 H        -4.288307        -1.327074         1.938344
 H        -3.584522        -2.438860         0.720521
 H        -2.690172        -3.004430         2.947012
 H        -0.717910        -1.505925         3.814666
 H        -0.875105         0.965224         2.798649
 H         0.256266         0.001197         1.812586
