19
Iteration:  4584charge 0 multiplicity 1
 O        -1.116155         1.019454        -0.187922
 C        -1.639498         0.450560         1.024037
 C        -3.144423         0.966774         1.197349
 C        -2.869145        -0.371696         0.569928
 C        -3.209952        -1.645672         1.243244
 C        -2.274468        -2.029741         2.446771
 O        -1.087046        -2.651265         2.305879
 C        -1.039092        -1.330126         2.926643
 C        -0.611437        -0.160571         2.027227
 H        -0.509098         1.780066        -0.178667
 H        -3.462090         1.050363         2.312559
 H        -3.377266         1.794234         0.565070
 H        -3.240168        -0.413738        -0.441311
 H        -4.339888        -1.539738         1.352591
 H        -3.139602        -2.440950         0.504679
 H        -2.714537        -2.552910         3.246298
 H        -1.022418        -1.199489         3.991178
 H        -0.448371         0.561391         2.784827
 H         0.361415        -0.399636         1.573242
