19
Iteration:  2789charge 0 multiplicity 1
 O        -0.992894         1.131033        -0.133354
 C        -1.650349         0.348529         0.863743
 C        -2.934408         0.901759         1.365957
 C        -2.947880        -0.416695         0.607457
 C        -3.278283        -1.753655         1.253427
 C        -2.424186        -2.008007         2.489043
 O        -1.060683        -2.535367         2.243060
 C        -1.151905        -1.243390         2.838710
 C        -0.653989        -0.137728         1.966691
 H        -0.320546         0.599338        -0.570814
 H        -2.961459         0.965882         2.439940
 H        -3.275971         1.822154         0.895688
 H        -3.338831        -0.192669        -0.363913
 H        -4.397381        -1.834432         1.656759
 H        -3.200246        -2.718304         0.660422
 H        -2.846533        -2.370375         3.425532
 H        -0.788415        -1.196849         3.865047
 H        -0.479171         0.591156         2.772558
 H         0.356081        -0.388390         1.658050
