19
Iteration:  3987
 O        -1.007588         0.780986        -0.173569
 C        -1.666447         0.429769         1.009459
 C        -3.110096         1.030028         1.192824
 C        -2.884358        -0.336892         0.586076
 C        -3.303360        -1.607378         1.418790
 C        -2.256352        -2.115881         2.394883
 O        -0.987565        -2.565550         2.072918
 C        -1.082775        -1.285406         2.799336
 C        -0.767107         0.000494         2.203358
 H        -0.161356         1.273586         0.033739
 H        -3.439043         1.097467         2.289704
 H        -3.545200         1.870317         0.606741
 H        -3.092201        -0.467557        -0.458133
 H        -4.319324        -1.499791         1.928466
 H        -3.392737        -2.509654         0.800619
 H        -2.817247        -2.778206         3.094252
 H        -0.636388        -1.367912         3.838424
 H        -0.752258         0.718651         3.091349
 H         0.327374        -0.075348         1.935242
