19
Iteration:   850
 O        -0.926365         0.749213        -0.159163
 C        -1.736081         0.360113         0.940954
 C        -3.101974         0.966801         1.037676
 C        -2.976998        -0.369605         0.510467
 C        -3.140646        -1.592959         1.455657
 C        -2.262528        -2.110376         2.488327
 O        -0.882041        -2.430251         2.120935
 C        -1.131583        -1.294330         2.952911
 C        -0.930065         0.008133         2.194311
 H        -0.485745         1.587309         0.036063
 H        -3.485421         1.195608         2.036682
 H        -3.393351         1.682370         0.213595
 H        -3.260467        -0.598565        -0.536580
 H        -4.173512        -1.707764         1.823237
 H        -3.083953        -2.444766         0.746626
 H        -2.633100        -2.762010         3.275044
 H        -0.820302        -1.320874         4.132812
 H        -1.051930         0.772115         2.953475
 H         0.090098        -0.034006         1.779604
