19
Iteration:  2315charge 0 multiplicity 1
 O        -0.820426         0.692774        -0.154201
 C        -1.655114         0.421912         0.955451
 C        -3.040828         1.086282         1.247396
 C        -2.940116        -0.326580         0.760572
 C        -3.270070        -1.600317         1.481322
 C        -2.307322        -2.129540         2.471269
 O        -1.000184        -2.423440         1.916065
 C        -1.131771        -1.427881         2.763360
 C        -0.893393         0.027932         2.158797
 H        -1.533103         0.726451        -0.857559
 H        -3.240443         1.466512         2.251563
 H        -3.233860         1.938953         0.675044
 H        -2.926881        -0.489490        -0.289139
 H        -4.231569        -1.409424         1.967196
 H        -3.404099        -2.414837         0.829450
 H        -2.651487        -2.824875         3.154240
 H        -0.529526        -1.501386         3.669150
 H        -1.076681         0.554775         3.100713
 H         0.232011         0.109155         2.060402
