19
Iteration:   594charge 0 multiplicity 1
 O        -0.891911         0.825400        -0.153659
 C        -1.724735         0.430757         1.018166
 C        -3.206419         0.790691         1.005511
 C        -2.761862        -0.563713         0.550936
 C        -3.191561        -1.773049         1.422225
 C        -2.305842        -2.059344         2.583265
 O        -1.048715        -2.404338         2.066748
 C        -1.139895        -1.139681         2.890466
 C        -0.844515         0.199219         2.169058
 H        -0.198424         1.383243         0.263058
 H        -3.724816         0.855929         1.998440
 H        -3.442266         1.500216         0.276017
 H        -2.550870        -0.765483        -0.522606
 H        -4.210354        -1.582256         1.689434
 H        -3.209303        -2.624460         0.784107
 H        -2.603447        -2.795289         3.342561
 H        -0.728979        -1.284916         3.857080
 H        -0.966580         0.966058         2.913303
 H         0.184391         0.083515         1.925041
