19
Iteration:   401charge 0 multiplicity 1
 O        -1.126569         0.996716        -0.169156
 C        -1.711244         0.357469         0.932644
 C        -3.182639         0.787348         1.228457
 C        -2.808994        -0.497186         0.463765
 C        -2.908495        -1.843935         1.087967
 C        -2.419415        -1.770687         2.505728
 O        -1.050729        -2.524666         2.599619
 C        -1.144315        -1.146635         2.855819
 C        -0.666433        -0.085829         1.992400
 H        -0.493215         1.619234         0.187014
 H        -3.606570         0.766431         2.176886
 H        -3.707893         1.509585         0.628337
 H        -3.028504        -0.461488        -0.617731
 H        -3.951616        -2.196441         1.181506
 H        -2.528359        -2.745243         0.563622
 H        -3.067914        -1.839015         3.351495
 H        -1.095084        -1.074565         3.933533
 H        -0.324613         0.781521         2.427412
 H         0.138349        -0.427889         1.307960
