19
Iteration:  1213charge 0 multiplicity 1
 O        -1.017721         0.929822        -0.104455
 C        -1.667091         0.315498         0.946765
 C        -3.095994         0.821717         1.228240
 C        -2.841610        -0.491411         0.592968
 C        -3.189619        -1.828473         1.222590
 C        -2.367322        -1.975873         2.453229
 O        -1.061639        -2.424472         2.301877
 C        -1.156869        -1.099623         2.851956
 C        -0.663611        -0.011924         1.977691
 H        -0.598135         1.683608         0.306460
 H        -3.404941         0.804529         2.292855
 H        -3.515643         1.710845         0.845716
 H        -2.806490        -0.509769        -0.508044
 H        -4.292926        -1.839997         1.313877
 H        -2.870120        -2.705963         0.589811
 H        -2.900918        -2.277167         3.388104
 H        -0.932816        -1.082937         3.982462
 H        -0.497102         0.921503         2.635136
 H         0.274240        -0.459429         1.530253
