19
Iteration:  1513charge 0 multiplicity 1
 O        -0.864040         0.800137        -0.096564
 C        -1.641514         0.398944         0.930913
 C        -3.047543         0.977307         1.242035
 C        -2.862813        -0.423432         0.568813
 C        -3.271804        -1.759306         1.311412
 C        -2.337306        -2.101581         2.412259
 O        -0.930815        -2.449616         2.155584
 C        -1.221340        -1.255597         2.873728
 C        -0.824747         0.086617         2.136777
 H        -1.392290         1.068207        -0.840313
 H        -3.265461         0.985883         2.320146
 H        -3.583674         1.580465         0.486564
 H        -3.021849        -0.285617        -0.501081
 H        -4.221727        -1.529329         1.924705
 H        -3.530155        -2.732499         0.801358
 H        -2.640328        -2.674307         3.213841
 H        -1.154823        -1.136321         4.013854
 H        -0.872498         0.949716         2.899261
 H         0.302429         0.176398         1.842216
