19
Iteration:  4134charge 0 multiplicity 1
 O        -0.901610         0.859853        -0.120218
 C        -1.673723         0.456633         0.902990
 C        -3.073427         0.912385         1.207294
 C        -2.939927        -0.384663         0.615787
 C        -3.318699        -1.645993         1.409611
 C        -2.285844        -2.124765         2.436773
 O        -0.927483        -2.452214         2.053530
 C        -1.211268        -1.281800         2.943883
 C        -0.750154        -0.066036         2.051960
 H        -0.376021         1.613025         0.136139
 H        -3.290471         0.960898         2.265250
 H        -3.524318         1.661215         0.600682
 H        -3.240276        -0.387159        -0.396142
 H        -4.199530        -1.423400         2.072394
 H        -3.748022        -2.377697         0.745022
 H        -2.728964        -2.675407         3.263964
 H        -0.803706        -1.594112         3.928558
 H        -0.590534         0.810794         2.762513
 H         0.212772        -0.410715         1.676987
