19
Iteration:   565
 O        -0.978403         0.971203        -0.159962
 C        -1.690917         0.282711         0.957826
 C        -3.077767         0.833222         1.068192
 C        -2.872903        -0.579545         0.473770
 C        -3.313248        -1.757760         1.397808
 C        -2.303956        -2.067640         2.488504
 O        -0.856833        -2.302970         2.207972
 C        -1.233759        -1.154336         2.980296
 C        -0.783276         0.033185         2.123559
 H        -0.073211         0.937538         0.250870
 H        -3.711513         0.957154         1.949708
 H        -3.296247         1.570973         0.273135
 H        -2.922596        -0.788745        -0.568056
 H        -4.390659        -1.660137         1.715100
 H        -3.347088        -2.628244         0.687881
 H        -2.520173        -2.875334         3.136864
 H        -1.000923        -1.064091         4.112365
 H        -0.993701         1.014738         2.722548
 H         0.336046        -0.134979         1.887859
