19
Iteration:  4769
 O        -1.072565         0.830286        -0.153805
 C        -1.588037         0.385654         1.011052
 C        -2.948835         0.950893         1.257922
 C        -2.825954        -0.444937         0.629710
 C        -3.325819        -1.705754         1.389001
 C        -2.301017        -2.127886         2.440564
 O        -0.959529        -2.387698         2.007349
 C        -1.243345        -1.217626         2.874835
 C        -0.738868        -0.057503         2.143525
 H        -0.959978         1.822177        -0.104690
 H        -3.396512         1.005385         2.247988
 H        -3.403749         1.753428         0.541576
 H        -2.918884        -0.408876        -0.508112
 H        -4.236931        -1.521958         1.885831
 H        -3.556949        -2.379687         0.563261
 H        -2.645510        -2.774650         3.222390
 H        -0.979165        -1.415395         3.958816
 H        -0.473786         0.717223         2.926087
 H         0.154307        -0.186888         1.463643
