19
Iteration:  1520charge 0 multiplicity 1
 O        -0.856602         0.831745        -0.062861
 C        -1.679069         0.402612         0.949571
 C        -2.991318         0.917550         1.226864
 C        -2.869523        -0.453168         0.534061
 C        -3.264842        -1.779066         1.301463
 C        -2.334308        -2.066058         2.474507
 O        -0.955960        -2.474704         2.148838
 C        -1.204881        -1.176314         2.810861
 C        -0.818805         0.126477         2.143733
 H        -1.462248         0.935661        -0.826169
 H        -3.235070         1.020336         2.331437
 H        -3.522029         1.665323         0.720651
 H        -3.114499        -0.422745        -0.553658
 H        -4.278174        -1.541620         1.758381
 H        -3.589008        -2.654600         0.719381
 H        -2.754015        -2.656869         3.352517
 H        -0.972509        -1.423328         3.878340
 H        -0.899565         0.897939         2.898261
 H         0.199676        -0.105835         1.869104
