19
Iteration:  3092charge 0 multiplicity 1
 O        -0.981135         1.089179        -0.115732
 C        -1.672325         0.406089         1.013043
 C        -3.034042         1.085714         1.008323
 C        -2.896948        -0.469248         0.584742
 C        -3.377825        -1.562912         1.572907
 C        -2.257682        -2.140642         2.476935
 O        -1.069696        -2.628360         2.000739
 C        -1.071608        -1.456826         2.847429
 C        -0.664333        -0.016428         2.252471
 H        -0.810139         0.490173        -0.840390
 H        -3.396709         1.182646         2.013757
 H        -3.306679         1.855333         0.229991
 H        -2.774420        -0.874171        -0.474063
 H        -4.310116        -1.142815         2.027173
 H        -3.710037        -2.343333         0.949591
 H        -2.611637        -2.718280         3.271336
 H        -0.578169        -1.600906         3.789727
 H        -0.837881         0.747246         2.978266
 H         0.250474        -0.024108         1.641862
