19
Iteration:  1917charge 0 multiplicity 1
 O        -0.879029         1.043929        -0.052314
 C        -1.723196         0.324899         0.896953
 C        -3.014181         0.930977         1.327697
 C        -2.945163        -0.429705         0.567858
 C        -3.235358        -1.751830         1.273657
 C        -2.385415        -1.934566         2.552339
 O        -1.097528        -2.569710         2.254218
 C        -1.109785        -1.201694         2.803548
 C        -0.611415        -0.168681         1.897712
 H        -1.453664         1.843429        -0.211807
 H        -3.205226         0.819406         2.389565
 H        -3.457215         1.882148         0.831729
 H        -3.290677        -0.296385        -0.521709
 H        -4.294907        -1.648634         1.684191
 H        -3.349093        -2.635759         0.664508
 H        -2.923769        -2.528098         3.262557
 H        -0.848273        -1.144936         3.905442
 H        -0.079299         0.660490         2.334689
 H         0.230645        -0.682826         1.414282
