19
Iteration:  4435charge 0 multiplicity 1
 O        -1.005932         1.151444        -0.138290
 C        -1.689322         0.370795         0.917973
 C        -3.018767         0.804713         1.503057
 C        -2.998713        -0.394134         0.517109
 C        -3.139635        -1.757019         1.153575
 C        -2.397957        -1.929364         2.449826
 O        -1.045127        -2.579489         2.456651
 C        -1.234106        -1.123190         2.834508
 C        -0.589754        -0.237840         1.767139
 H        -0.343861         1.550814         0.414777
 H        -3.073771         0.554374         2.606965
 H        -3.343293         1.779979         1.228489
 H        -3.137952        -0.451786        -0.541563
 H        -4.132586        -1.819094         1.521431
 H        -2.945483        -2.551041         0.404800
 H        -3.097590        -2.453910         3.198388
 H        -1.004970        -0.907562         3.895648
 H         0.200760         0.371773         2.233628
 H        -0.088919        -0.933822         1.046424
