19
Iteration:  4704
 O        -1.082561         1.036971        -0.260418
 C        -1.634560         0.435849         0.953942
 C        -3.048607         0.975755         1.164805
 C        -2.812607        -0.382563         0.643098
 C        -3.169539        -1.698861         1.374093
 C        -2.320713        -2.113545         2.587223
 O        -1.138943        -2.688008         2.129990
 C        -1.018206        -1.371988         2.772866
 C        -0.771753         0.047833         2.181143
 H        -0.502713         1.746363         0.087634
 H        -3.432873         1.028785         2.188407
 H        -3.411962         1.700852         0.362529
 H        -2.935608        -0.381938        -0.478798
 H        -4.184277        -1.671906         1.740245
 H        -3.254560        -2.515225         0.630588
 H        -2.764759        -2.555215         3.456449
 H        -0.727061        -1.349655         3.845818
 H        -0.855575         0.802758         2.993279
 H         0.324553        -0.014390         1.943642
