19
Iteration:  4752charge 0 multiplicity 1
 O        -0.892121         0.895072        -0.145256
 C        -1.681685         0.306881         0.976355
 C        -3.104476         0.907005         1.279305
 C        -2.956718        -0.468839         0.599604
 C        -3.294937        -1.636805         1.376671
 C        -2.323621        -2.071594         2.400157
 O        -0.964255        -2.379172         2.010277
 C        -1.185871        -1.231516         2.933908
 C        -0.676327        -0.051925         2.097735
 H        -0.857978         1.860401         0.062735
 H        -3.357503         0.885755         2.358494
 H        -3.254242         1.783610         0.729125
 H        -3.206563        -0.620636        -0.412373
 H        -4.356439        -1.599283         1.859287
 H        -3.529968        -2.677371         0.995331
 H        -2.742536        -2.844128         3.156386
 H        -0.723192        -1.399703         3.927509
 H        -0.457553         0.881303         2.584123
 H         0.279565        -0.469764         1.741522
