19
Iteration:  1595charge 0 multiplicity 1
 O        -1.061570         1.113835        -0.161773
 C        -1.632129         0.381271         0.912875
 C        -3.072217         0.918192         1.169836
 C        -2.818904        -0.462976         0.497780
 C        -3.241235        -1.681430         1.320711
 C        -2.324359        -2.098437         2.435786
 O        -0.996543        -2.577405         2.385080
 C        -1.197565        -1.260686         2.849127
 C        -0.676144        -0.064791         2.032378
 H        -0.138391         1.165558         0.102731
 H        -3.428008         1.020501         2.294214
 H        -3.411210         1.712369         0.562330
 H        -3.204371        -0.496070        -0.547220
 H        -4.133916        -1.275160         1.789170
 H        -3.625999        -2.639975         0.783967
 H        -3.049529        -2.533744         3.334373
 H        -0.917808        -1.328166         3.903275
 H        -0.413107         0.588192         2.872070
 H         0.207119        -0.476311         1.525563
