19
Iteration:  4804
 O        -0.962793         0.897659        -0.250012
 C        -1.679267         0.451391         0.915858
 C        -3.026584         0.991028         1.237135
 C        -2.939158        -0.341104         0.641483
 C        -3.229227        -1.633148         1.356693
 C        -2.268775        -2.099907         2.516219
 O        -1.011783        -2.628937         2.064770
 C        -1.077086        -1.347966         2.843071
 C        -0.843678        -0.011885         2.179139
 H        -0.450784         1.731063        -0.015510
 H        -3.333163         0.915025         2.339476
 H        -3.584882         1.685276         0.604311
 H        -3.319666        -0.535895        -0.338804
 H        -4.251909        -1.628326         1.762869
 H        -3.179079        -2.580410         0.781508
 H        -2.685495        -2.363805         3.540291
 H        -0.562368        -1.498048         3.858290
 H        -1.101239         0.663695         3.049028
 H         0.233525         0.294135         1.910337
