19
Iteration:  4552
 O        -0.909869         1.095142        -0.063661
 C        -1.694465         0.427862         0.836652
 C        -2.983977         0.893274         1.339388
 C        -2.869280        -0.424552         0.554123
 C        -3.261857        -1.785465         1.314202
 C        -2.363538        -2.087538         2.581360
 O        -1.054305        -2.530789         2.265941
 C        -1.180307        -1.196731         2.809539
 C        -0.765795        -0.184754         1.857611
 H        -0.489488         1.921140         0.173898
 H        -3.056071         0.699174         2.467323
 H        -3.332144         1.753777         0.828153
 H        -3.319071        -0.397346        -0.425719
 H        -4.397713        -1.708864         1.478280
 H        -2.983947        -2.604387         0.637241
 H        -2.811437        -2.580135         3.420165
 H        -0.933807        -0.950037         3.804973
 H        -0.471825         0.619992         2.531629
 H         0.055996        -0.398257         1.151962
