19
Iteration:  1673charge 0 multiplicity 1
 O        -0.993431         1.042567        -0.254094
 C        -1.629221         0.390070         0.929850
 C        -3.003430         0.836293         1.423506
 C        -2.886860        -0.377069         0.546417
 C        -3.055909        -1.691024         1.160936
 C        -2.407630        -2.020135         2.490275
 O        -1.120994        -2.577944         2.457604
 C        -1.168157        -1.277161         2.863469
 C        -0.666715        -0.074303         1.941159
 H        -1.751495         1.375562        -0.715946
 H        -3.182209         0.821259         2.475651
 H        -3.240070         1.862017         0.997894
 H        -3.227687        -0.398730        -0.502131
 H        -4.142622        -1.704399         1.368046
 H        -2.777545        -2.447478         0.371228
 H        -3.225748        -2.597892         3.116612
 H        -1.212348        -1.004440         3.932146
 H        -0.487967         0.712826         2.718194
 H         0.302882        -0.403359         1.539116
