19
Iteration:  3751
 O        -1.058557         1.145583        -0.137176
 C        -1.636753         0.443649         0.860808
 C        -3.008807         0.902111         1.339711
 C        -2.873567        -0.371242         0.490290
 C        -3.115134        -1.695593         1.198826
 C        -2.427977        -1.980647         2.589691
 O        -1.116544        -2.726800         2.425817
 C        -1.109555        -1.324857         2.853805
 C        -0.668591        -0.139847         1.852059
 H        -1.281840         2.101369        -0.134221
 H        -3.202328         0.669526         2.375253
 H        -3.339810         1.873254         1.084994
 H        -3.332933        -0.424292        -0.516333
 H        -4.181491        -1.811677         1.398314
 H        -2.791229        -2.521379         0.505280
 H        -2.987642        -2.337084         3.443005
 H        -0.653861        -1.272686         3.851052
 H        -0.229681         0.662423         2.581148
 H         0.286802        -0.555372         1.391764
