19
Iteration:  4510charge 0 multiplicity 1
 O        -1.148107         1.032749        -0.215761
 C        -1.588170         0.402591         1.001530
 C        -2.956717         0.846957         1.441793
 C        -2.798603        -0.392969         0.480902
 C        -3.185843        -1.718346         1.200645
 C        -2.427745        -1.982621         2.452065
 O        -1.114603        -2.565201         2.368833
 C        -1.191749        -1.294104         2.857936
 C        -0.576150        -0.096086         1.893694
 H        -1.303846         2.013440        -0.035961
 H        -3.028798         0.682112         2.560598
 H        -3.221136         1.791431         1.053596
 H        -2.992852        -0.215598        -0.569887
 H        -4.279293        -1.824427         1.467354
 H        -2.909670        -2.563464         0.515166
 H        -3.035192        -2.325668         3.356555
 H        -0.984771        -1.280616         3.905613
 H        -0.315485         0.757274         2.597564
 H         0.372472        -0.612363         1.573113
