19
Iteration:  4893charge 0 multiplicity 1
 O        -0.993038         0.953932        -0.199052
 C        -1.611235         0.358872         0.965368
 C        -2.956940         0.907561         1.275960
 C        -2.922378        -0.482175         0.624780
 C        -3.304269        -1.671197         1.403103
 C        -2.336016        -2.065843         2.419379
 O        -0.998073        -2.528598         2.072952
 C        -1.132017        -1.308333         2.842544
 C        -0.718287         0.018004         2.122456
 H        -1.094254         1.934213        -0.029495
 H        -3.193346         0.921468         2.319131
 H        -3.266386         1.847878         0.772560
 H        -3.141346        -0.306126        -0.411555
 H        -4.259739        -1.428826         1.719710
 H        -3.636868        -2.573275         0.863759
 H        -2.919625        -2.622938         3.209509
 H        -0.924196        -1.413151         3.941240
 H        -0.884612         0.899133         2.781239
 H         0.363109        -0.064512         1.816003
