19
Iteration:  1934charge 0 multiplicity 1
 O        -0.896054         1.014640        -0.100384
 C        -1.690288         0.430513         0.899440
 C        -2.977203         0.969016         1.341273
 C        -2.932646        -0.353106         0.589926
 C        -3.253396        -1.678028         1.334048
 C        -2.370558        -2.079217         2.516455
 O        -1.044478        -2.522856         2.224507
 C        -1.188886        -1.296239         2.903254
 C        -0.709802        -0.186792         1.893300
 H        -1.451431         1.242526        -0.899103
 H        -3.259812         0.882013         2.402906
 H        -3.263482         1.771077         0.760396
 H        -3.224454        -0.453101        -0.420158
 H        -4.300436        -1.852093         1.514984
 H        -2.735049        -2.358478         0.594638
 H        -2.868319        -2.548977         3.436156
 H        -0.736544        -1.122166         3.862234
 H        -0.325010         0.676609         2.565526
 H         0.092161        -0.685270         1.288611
