19
Iteration:  1359charge 0 multiplicity 1
 O        -0.860999         0.845527        -0.125510
 C        -1.729960         0.391198         0.950195
 C        -3.080415         0.954355         1.072392
 C        -2.852532        -0.472492         0.564287
 C        -3.270887        -1.664446         1.476980
 C        -2.237267        -2.058249         2.467853
 O        -0.927607        -2.443549         2.040595
 C        -1.188972        -1.278151         2.857443
 C        -0.948984         0.072469         2.278591
 H        -0.495494         0.061819        -0.637242
 H        -3.438124         1.215792         2.051162
 H        -3.533944         1.718348         0.413561
 H        -2.927138        -0.612378        -0.530947
 H        -4.140285        -1.493897         2.015237
 H        -3.316389        -2.490706         0.764064
 H        -2.568895        -2.777860         3.150161
 H        -0.661544        -1.303448         3.840563
 H        -1.296654         0.752791         3.081948
 H         0.113723         0.256371         2.011202
