19
Iteration:  3370charge 0 multiplicity 1
 O        -0.990375         0.774338        -0.097209
 C        -1.647709         0.294405         1.042455
 C        -3.046742         0.971836         1.140021
 C        -2.884125        -0.483868         0.583377
 C        -3.353719        -1.587561         1.478679
 C        -2.305654        -2.007364         2.407073
 O        -1.035943        -2.453111         1.913583
 C        -1.051495        -1.299734         2.853322
 C        -0.761896         0.057927         2.233323
 H        -0.427434         1.561356         0.156341
 H        -3.735709         0.927120         1.987200
 H        -3.071229         1.884562         0.451837
 H        -2.896637        -0.495976        -0.478355
 H        -4.259518        -1.287401         1.979785
 H        -3.572684        -2.511161         0.864448
 H        -2.686405        -2.741095         3.161996
 H        -0.462795        -1.638577         3.774050
 H        -0.767423         0.850681         3.053980
 H         0.317894         0.047734         1.935141
