19
Iteration:   528
 O        -0.962384         1.033516        -0.214752
 C        -1.686013         0.463440         0.886598
 C        -3.123360         0.894303         1.138966
 C        -2.760024        -0.564462         0.587513
 C        -3.198657        -1.799824         1.278199
 C        -2.356744        -2.070540         2.535433
 O        -0.864806        -2.506247         2.387421
 C        -1.207326        -1.177524         2.888511
 C        -0.872741         0.038760         2.082422
 H        -0.763897         0.326411        -0.878399
 H        -3.431898         0.981976         2.179935
 H        -3.534177         1.496067         0.290667
 H        -3.008929        -0.427632        -0.524853
 H        -4.191183        -1.819625         1.646735
 H        -2.960577        -2.672459         0.732571
 H        -2.940786        -2.676699         3.262026
 H        -1.117226        -1.058603         3.923815
 H        -1.089879         0.832188         2.849097
 H         0.145203         0.269340         1.807939
