19
Iteration:  2478
 O        -0.930949         0.814554        -0.172533
 C        -1.574841         0.353653         0.990991
 C        -2.999124         0.973899         1.403966
 C        -2.904331        -0.375604         0.657563
 C        -3.302183        -1.708975         1.294807
 C        -2.341016        -2.080862         2.455846
 O        -1.007685        -2.420694         2.046928
 C        -1.235586        -1.229798         2.848252
 C        -0.697985         0.035030         2.106717
 H        -1.352347         0.503522        -0.988851
 H        -3.267859         0.971063         2.445534
 H        -3.376153         1.902613         0.887377
 H        -3.317058        -0.434749        -0.322223
 H        -4.356326        -1.643980         1.619194
 H        -3.336106        -2.542447         0.605182
 H        -2.788546        -2.664124         3.135556
 H        -0.754781        -1.455519         3.826614
 H        -0.600482         0.881222         2.804175
 H         0.240274        -0.331912         1.715841
