19
Iteration:   670
 O        -0.664449         0.717130        -0.064436
 C        -1.781544         0.465781         1.030298
 C        -3.191688         0.870373         0.992735
 C        -2.879546        -0.570599         0.611508
 C        -3.263805        -1.704066         1.512970
 C        -2.211191        -2.121271         2.374590
 O        -0.896087        -2.268654         1.994668
 C        -1.208458        -1.159852         2.992247
 C        -1.004442         0.088889         2.195600
 H        -1.081090         0.991974        -0.936872
 H        -3.753648         1.084260         1.903881
 H        -3.468674         1.473706         0.135082
 H        -2.795778        -0.963409        -0.437469
 H        -4.118779        -1.460923         2.179632
 H        -3.589791        -2.459531         0.808429
 H        -2.642818        -2.827024         3.140500
 H        -0.704149        -1.243354         3.891254
 H        -0.967530         0.877839         2.852861
 H        -0.002265         0.014047         1.879057
