19
Iteration:   181charge 0 multiplicity 1
 O        -0.882396         0.834152        -0.159554
 C        -1.755270         0.384333         0.886710
 C        -3.152653         0.794416         1.190283
 C        -2.883569        -0.530266         0.483696
 C        -3.047744        -1.847009         1.178413
 C        -2.413548        -1.913787         2.543214
 O        -0.956923        -2.450420         2.383343
 C        -1.172558        -1.120556         2.876151
 C        -0.854687         0.102219         2.122751
 H        -0.794681         1.784553        -0.284357
 H        -3.283246         0.801642         2.291858
 H        -3.646317         1.545524         0.605916
 H        -3.026551        -0.481190        -0.673045
 H        -4.067659        -2.157328         1.308701
 H        -2.428644        -2.597082         0.664578
 H        -2.884076        -2.263750         3.448485
 H        -0.947962        -1.013520         3.956455
 H        -0.928226         0.910299         2.862694
 H         0.202197        -0.014992         1.684101
