19
Iteration:  3679
 O        -1.052940         1.119352        -0.158324
 C        -1.661227         0.384047         0.871319
 C        -2.993544         0.868612         1.416870
 C        -2.978287        -0.323429         0.619769
 C        -3.060810        -1.783164         1.109611
 C        -2.437100        -1.925300         2.506238
 O        -1.072526        -2.699491         2.460963
 C        -1.156878        -1.224899         2.803561
 C        -0.640089        -0.167826         1.836046
 H        -0.327705         1.646649         0.275250
 H        -3.099158         0.813474         2.512761
 H        -3.569983         1.635733         0.974231
 H        -3.503872        -0.126311        -0.372766
 H        -4.190504        -1.890526         1.243623
 H        -2.631627        -2.490831         0.417412
 H        -2.999519        -2.224870         3.382374
 H        -1.100068        -1.109055         3.877782
 H        -0.261138         0.656133         2.409412
 H         0.224932        -0.477489         1.297472
