19
Iteration:  3508
 O        -0.891192         1.032990        -0.179392
 C        -1.653187         0.323603         0.872222
 C        -2.879306         0.932264         1.385418
 C        -2.983897        -0.420999         0.619831
 C        -3.236660        -1.722030         1.272262
 C        -2.368786        -2.062051         2.496117
 O        -1.051699        -2.539480         2.206970
 C        -1.206364        -1.226588         2.846243
 C        -0.752767        -0.075093         2.005257
 H        -1.270917         1.927604        -0.201462
 H        -3.084123         0.892370         2.484448
 H        -3.455358         1.743098         0.868823
 H        -3.279203        -0.316439        -0.421261
 H        -4.226997        -1.706938         1.779197
 H        -3.023561        -2.676625         0.654873
 H        -2.953536        -2.735651         3.157496
 H        -0.903729        -1.273645         3.879508
 H        -0.539008         0.780128         2.637904
 H         0.203264        -0.429449         1.564955
