19
Iteration:  2597
 O        -0.996737         1.236888        -0.107923
 C        -1.646366         0.376364         0.871287
 C        -2.973577         0.810992         1.387989
 C        -2.868883        -0.417861         0.535759
 C        -3.311712        -1.766002         1.331606
 C        -2.440182        -1.940317         2.532107
 O        -1.132242        -2.594096         2.270269
 C        -1.076325        -1.279937         2.785309
 C        -0.572444        -0.112024         1.948253
 H        -0.585721         0.630459        -0.761459
 H        -3.174101         0.649068         2.432611
 H        -3.427846         1.695207         0.798369
 H        -3.189354        -0.375356        -0.501863
 H        -4.392955        -1.730814         1.561804
 H        -3.173301        -2.725705         0.692167
 H        -3.042927        -2.301645         3.424992
 H        -0.876681        -1.227031         3.860101
 H        -0.289840         0.696956         2.596917
 H         0.291753        -0.548154         1.413284
