19
Iteration:  2474charge 0 multiplicity 1
 O        -0.910196         0.817383        -0.159173
 C        -1.606803         0.365000         1.002766
 C        -2.975702         0.975338         1.410489
 C        -2.892932        -0.408115         0.658722
 C        -3.310600        -1.711906         1.328898
 C        -2.313183        -2.057546         2.401075
 O        -1.029112        -2.386262         2.049009
 C        -1.223782        -1.217902         2.828907
 C        -0.697651         0.020425         2.089978
 H        -1.425472         0.437261        -0.913134
 H        -3.271609         0.869120         2.493760
 H        -3.418079         1.667092         0.714456
 H        -3.336182        -0.307950        -0.356265
 H        -4.357925        -1.667148         1.696754
 H        -3.403037        -2.603136         0.618085
 H        -2.887572        -2.708906         3.205871
 H        -0.876778        -1.455229         3.819732
 H        -0.594344         0.740757         2.872104
 H         0.262237        -0.353230         1.776477
