19
Iteration:   939
 O        -0.981779         1.036073        -0.100887
 C        -1.665212         0.358637         0.924828
 C        -3.132459         0.814199         1.192210
 C        -2.846540        -0.517763         0.495819
 C        -3.129960        -1.794357         1.267519
 C        -2.369841        -1.901453         2.592458
 O        -1.088425        -2.622048         2.358526
 C        -1.145290        -1.120778         2.807646
 C        -0.674648        -0.027463         1.968453
 H        -1.135929         1.955696         0.084470
 H        -3.572012         0.917565         2.171205
 H        -3.371881         1.552669         0.470901
 H        -2.933834        -0.304463        -0.548754
 H        -4.197222        -1.844053         1.456331
 H        -2.768718        -2.766479         0.868596
 H        -3.052224        -2.196749         3.380870
 H        -0.680042        -1.191193         3.903174
 H        -0.453561         0.869903         2.490428
 H         0.258768        -0.264563         1.435569
