19
Iteration:  1830charge 0 multiplicity 1
 O        -0.928148         1.108221        -0.085129
 C        -1.702285         0.383456         0.927287
 C        -2.926506         0.903738         1.490956
 C        -2.988553        -0.348589         0.580587
 C        -3.160535        -1.757640         1.109010
 C        -2.360521        -2.024055         2.434942
 O        -1.083702        -2.588635         2.493268
 C        -1.167214        -1.161233         2.825029
 C        -0.699821        -0.199699         1.780348
 H        -0.983930         0.314363        -0.684252
 H        -3.234853         0.897849         2.576854
 H        -3.434669         1.758913         1.010062
 H        -3.507127        -0.076165        -0.403473
 H        -4.231359        -2.030793         1.199682
 H        -2.815819        -2.396360         0.326166
 H        -2.946383        -2.309442         3.298216
 H        -0.961832        -0.833826         3.859217
 H        -0.223058         0.632052         2.251435
 H         0.000437        -0.724596         1.090786
