19
Iteration:  4646
 O        -0.764380         0.983657        -0.152024
 C        -1.676272         0.364413         0.884305
 C        -3.034408         0.867108         1.382584
 C        -2.992123        -0.479654         0.595219
 C        -3.365299        -1.751592         1.336545
 C        -2.380700        -2.079549         2.509553
 O        -0.951278        -2.417926         2.123593
 C        -1.195354        -1.221451         2.815458
 C        -0.742449        -0.059578         2.002673
 H        -0.860093         1.902496         0.178656
 H        -3.084290         0.810084         2.485732
 H        -3.338108         1.819796         1.028888
 H        -3.402218        -0.423257        -0.383021
 H        -4.305664        -1.669256         1.805454
 H        -3.352797        -2.610390         0.667711
 H        -2.788297        -2.770324         3.234108
 H        -1.124855        -1.156426         3.925295
 H        -0.438600         0.960967         2.416849
 H         0.196827        -0.501928         1.588433
