19
Iteration:    43
 O        -0.818220         0.637033        -0.117685
 C        -1.745773         0.368315         0.941886
 C        -3.152782         0.890307         0.805497
 C        -2.828841        -0.545211         0.551215
 C        -3.238458        -1.698121         1.447685
 C        -2.257477        -2.248120         2.486059
 O        -0.755579        -2.170765         2.140660
 C        -1.162377        -1.168473         2.997689
 C        -1.110956         0.163379         2.317627
 H        -0.712333         1.631952        -0.164951
 H        -3.584693         1.080277         1.735591
 H        -3.302442         1.464626        -0.054721
 H        -3.000866        -0.795631        -0.554089
 H        -4.139734        -1.349533         2.014267
 H        -3.678490        -2.451355         0.748336
 H        -2.588322        -3.109222         3.073340
 H        -0.910186        -1.218373         4.043921
 H        -1.409150         0.925706         2.992860
 H        -0.112187         0.303871         2.043497
