19
Iteration:  1629charge 0 multiplicity 1
 O        -0.950477         0.954150        -0.144193
 C        -1.661291         0.334091         0.841972
 C        -3.062441         0.938292         1.331356
 C        -2.884001        -0.388031         0.560945
 C        -3.148047        -1.773180         1.249194
 C        -2.381110        -2.074587         2.515907
 O        -1.061503        -2.458001         2.317643
 C        -1.246272        -1.189650         2.820838
 C        -0.675070        -0.123341         1.997819
 H        -0.814442         1.862673         0.092430
 H        -3.230031         0.949574         2.460811
 H        -3.445591         1.810190         0.793818
 H        -3.330973        -0.252503        -0.446863
 H        -4.236935        -1.808643         1.434592
 H        -2.780683        -2.574913         0.538903
 H        -2.981378        -2.616023         3.442634
 H        -0.820881        -1.189675         3.852240
 H        -0.286552         0.774974         2.555988
 H         0.220068        -0.489090         1.501217
