19
Iteration:   219
 O        -1.002928         1.125434        -0.186781
 C        -1.658364         0.411701         0.818809
 C        -3.103541         0.774700         1.230830
 C        -2.799691        -0.542966         0.461140
 C        -3.056112        -1.884214         1.141031
 C        -2.382955        -2.003776         2.517583
 O        -0.983482        -2.415856         2.564588
 C        -1.311156        -1.119899         3.000964
 C        -0.698759        -0.059421         2.016817
 H        -1.450881         0.808503        -1.034929
 H        -3.270212         0.939996         2.270811
 H        -3.671955         1.513795         0.589235
 H        -3.095593        -0.430786        -0.537733
 H        -4.183888        -1.993439         1.240366
 H        -2.739234        -2.730527         0.505400
 H        -3.042080        -2.590276         3.194529
 H        -1.131670        -1.049683         4.083910
 H        -0.308032         0.829761         2.631534
 H         0.212411        -0.461378         1.598128
