19
Iteration:  1939
 O        -0.901803         1.013169        -0.133284
 C        -1.702060         0.448337         0.904491
 C        -2.996428         0.945830         1.332163
 C        -2.909218        -0.323125         0.644056
 C        -3.227686        -1.673311         1.305763
 C        -2.366259        -2.090917         2.553026
 O        -1.038329        -2.563239         2.217520
 C        -1.190760        -1.255799         2.874453
 C        -0.735879        -0.182180         1.929571
 H        -1.457604         1.001692        -0.911355
 H        -3.191991         0.968002         2.394874
 H        -3.146313         1.884599         0.686655
 H        -3.302365        -0.307959        -0.435598
 H        -4.330249        -1.856091         1.436329
 H        -2.884349        -2.384541         0.529477
 H        -2.852008        -2.687847         3.304702
 H        -0.710302        -1.064514         3.868039
 H        -0.294093         0.585769         2.561435
 H         0.156227        -0.669598         1.520360
