19
Iteration:  3937charge 0 multiplicity 1
 O        -0.878900         0.906253        -0.237008
 C        -1.637316         0.385883         0.924028
 C        -2.959540         0.953990         1.287838
 C        -2.915305        -0.390909         0.615234
 C        -3.247140        -1.693504         1.414680
 C        -2.341211        -2.152507         2.533572
 O        -1.032716        -2.491105         1.991871
 C        -1.192457        -1.313165         2.909716
 C        -0.796949         0.037216         2.153173
 H        -1.267468         1.784283        -0.373467
 H        -3.163900         0.943769         2.312360
 H        -3.397680         1.794834         0.701433
 H        -3.172705        -0.483155        -0.513650
 H        -4.173382        -1.460368         1.927173
 H        -3.441955        -2.615756         0.725123
 H        -2.833151        -2.796756         3.247762
 H        -0.914737        -1.451492         3.944378
 H        -0.793703         0.847262         2.871195
 H         0.235743        -0.042554         1.828969
