19
Iteration:  4467charge 0 multiplicity 1
 O        -1.003751         1.180202        -0.210127
 C        -1.677954         0.412640         0.861991
 C        -3.018230         0.988711         1.419161
 C        -3.021900        -0.393980         0.607021
 C        -3.069526        -1.783828         1.209962
 C        -2.521910        -2.018875         2.565842
 O        -1.016190        -2.649708         2.458003
 C        -1.181330        -1.291286         2.779505
 C        -0.623314        -0.192949         1.836090
 H        -0.285074         1.693290         0.287772
 H        -3.296275         1.014638         2.518795
 H        -3.348812         1.867602         0.924151
 H        -3.245422        -0.386367        -0.454555
 H        -4.114399        -2.065801         1.198054
 H        -2.654054        -2.490867         0.453214
 H        -3.111324        -2.659643         3.314931
 H        -0.869953        -1.087539         3.801804
 H        -0.100612         0.648131         2.393960
 H         0.111372        -0.574402         1.064534
