19
Iteration:  2905
 O        -1.037807         1.093169        -0.122538
 C        -1.561696         0.357788         1.013482
 C        -2.976977         0.890628         1.204300
 C        -2.841852        -0.484724         0.585550
 C        -3.326739        -1.614944         1.491615
 C        -2.390135        -2.092410         2.546631
 O        -1.145708        -2.539838         2.031958
 C        -1.116577        -1.273675         2.737081
 C        -0.621637        -0.039756         2.080600
 H        -0.167112         0.754593        -0.244860
 H        -3.653793         0.748408         2.057847
 H        -3.432748         1.764076         0.633684
 H        -2.713027        -0.519844        -0.449444
 H        -4.363121        -1.283364         1.960722
 H        -3.682013        -2.448088         0.911919
 H        -2.732637        -2.685581         3.385982
 H        -0.772223        -1.669246         3.720192
 H        -0.561481         0.860279         2.698127
 H         0.440846        -0.192483         1.676540
