19
Iteration:  3429charge 0 multiplicity 1
 O        -0.945676         0.988454        -0.127970
 C        -1.673141         0.400393         0.881230
 C        -2.990169         1.053513         1.118762
 C        -2.894492        -0.405413         0.609074
 C        -3.352376        -1.664460         1.441811
 C        -2.293162        -2.142946         2.535911
 O        -0.996628        -2.590291         2.098283
 C        -1.098071        -1.357401         2.779926
 C        -0.796028        -0.035975         2.147383
 H        -0.414392         1.719981         0.225836
 H        -3.334571         1.072306         2.140502
 H        -3.282490         1.843360         0.462295
 H        -3.379308        -0.498566        -0.426735
 H        -4.291872        -1.516710         2.036234
 H        -3.480649        -2.673891         0.805880
 H        -2.825614        -2.566211         3.433037
 H        -0.684204        -1.424791         3.756123
 H        -0.855317         0.780066         2.898764
 H         0.202233        -0.192618         1.781965
