19
Iteration:  4189
 O        -0.976890         1.016870        -0.333377
 C        -1.675504         0.407231         0.907502
 C        -3.007699         0.935377         1.313991
 C        -2.844212        -0.442466         0.617999
 C        -3.220772        -1.693509         1.381609
 C        -2.379976        -2.044124         2.563729
 O        -1.061069        -2.565024         2.121049
 C        -1.106094        -1.353885         2.817893
 C        -0.737577        -0.051320         2.175066
 H        -0.838055         1.878035         0.133941
 H        -3.251876         0.966432         2.340983
 H        -3.364055         1.758735         0.640780
 H        -3.091671        -0.528419        -0.407371
 H        -4.329192        -1.659710         1.542799
 H        -3.136816        -2.401044         0.580769
 H        -2.917922        -2.417169         3.423883
 H        -0.771756        -1.514497         3.877214
 H        -0.896096         0.769656         2.983804
 H         0.272865        -0.083910         1.754056
