19
Iteration:  4326
 O        -1.101430         1.095318        -0.154443
 C        -1.650588         0.391092         0.899514
 C        -2.995695         0.856671         1.461150
 C        -2.868142        -0.330146         0.587874
 C        -3.165614        -1.735126         1.181769
 C        -2.442757        -2.023677         2.417575
 O        -1.015754        -2.480550         2.446151
 C        -1.199592        -1.238467         2.893495
 C        -0.595842        -0.278708         1.783653
 H        -0.431688         1.601352         0.330559
 H        -3.354918         0.669234         2.427984
 H        -3.333384         1.829645         0.969674
 H        -3.257248        -0.345983        -0.400937
 H        -4.211537        -1.929403         1.344045
 H        -2.968148        -2.435155         0.309716
 H        -3.026668        -2.502792         3.272404
 H        -1.135695        -0.846494         3.939230
 H         0.068060         0.428651         2.199915
 H        -0.054502        -0.908790         1.064241
