19
Iteration:  4944
 O        -1.066251         0.943175        -0.176097
 C        -1.650404         0.441739         1.001171
 C        -3.081324         1.007562         1.244241
 C        -2.887428        -0.391145         0.627681
 C        -3.208501        -1.676911         1.368441
 C        -2.294886        -2.074917         2.482916
 O        -1.035265        -2.602429         2.120332
 C        -1.102151        -1.276349         2.816091
 C        -0.707163        -0.084343         2.079671
 H        -0.487837         1.696007         0.137044
 H        -3.517091         1.143086         2.301070
 H        -3.529673         1.670835         0.500206
 H        -3.070281        -0.320907        -0.402200
 H        -4.376901        -1.651514         1.467053
 H        -3.165267        -2.603941         0.736017
 H        -2.790681        -2.624915         3.239893
 H        -0.743038        -1.281003         3.894433
 H        -0.358971         0.672067         2.795314
 H         0.247676        -0.412267         1.594543
