19
Iteration:  3507charge 0 multiplicity 1
 O        -0.890713         1.029075        -0.177986
 C        -1.658671         0.315669         0.866111
 C        -2.877172         0.938044         1.390849
 C        -2.972701        -0.419787         0.624794
 C        -3.239470        -1.726534         1.273888
 C        -2.367806        -2.057473         2.502847
 O        -1.049149        -2.532407         2.200364
 C        -1.214856        -1.220338         2.834803
 C        -0.749528        -0.083038         2.014288
 H        -1.283937         1.903837        -0.192953
 H        -3.069742         0.888368         2.461980
 H        -3.471894         1.721090         0.863100
 H        -3.322250        -0.305821        -0.437382
 H        -4.195191        -1.711632         1.768915
 H        -3.014928        -2.660973         0.644898
 H        -2.956297        -2.737485         3.139955
 H        -0.910607        -1.238306         3.851666
 H        -0.551924         0.763775         2.691376
 H         0.186418        -0.438012         1.573561
