19
Iteration:   734
 O        -0.851496         0.862786        -0.126666
 C        -1.759601         0.461943         0.909061
 C        -3.125290         0.945461         0.917297
 C        -2.844700        -0.553587         0.611564
 C        -3.181640        -1.609113         1.491765
 C        -2.261942        -2.188158         2.593503
 O        -0.897106        -2.460029         2.021337
 C        -1.153972        -1.279448         2.857763
 C        -1.027077         0.168343         2.279024
 H        -0.251850         0.051073        -0.231146
 H        -3.429607         1.156096         1.902360
 H        -3.490814         1.644872         0.153813
 H        -2.762983        -0.681469        -0.483692
 H        -4.016246        -1.277759         2.203400
 H        -3.584625        -2.484015         0.907976
 H        -2.672011        -2.943198         3.327601
 H        -0.537954        -1.476295         3.639216
 H        -1.594422         0.792698         3.011868
 H        -0.020549         0.523447         2.144883
