19
Iteration:  2023charge 0 multiplicity 1
 O        -0.890221         0.933351        -0.134195
 C        -1.600073         0.401725         0.947746
 C        -3.045790         0.943100         1.271850
 C        -2.932262        -0.460251         0.646298
 C        -3.365373        -1.702911         1.455132
 C        -2.404982        -2.092685         2.555401
 O        -1.039767        -2.465272         2.043411
 C        -1.129818        -1.241934         2.752909
 C        -0.662647        -0.068863         2.024317
 H        -0.372925         1.620823         0.390241
 H        -3.524600         1.037453         2.180573
 H        -3.372396         1.771525         0.597641
 H        -2.987859        -0.331361        -0.498550
 H        -4.310489        -1.453702         1.922137
 H        -3.568818        -2.491848         0.653462
 H        -2.967971        -2.659132         3.403143
 H        -0.817833        -1.472900         3.771177
 H        -0.207048         0.834284         2.571991
 H         0.106671        -0.593458         1.428955
