19
Iteration:  2536
 O        -1.011347         1.108007        -0.149539
 C        -1.630842         0.482527         0.919357
 C        -2.978704         1.016102         1.255141
 C        -2.950406        -0.394709         0.601569
 C        -3.277112        -1.693051         1.384459
 C        -2.384489        -2.131499         2.486078
 O        -1.082754        -2.649033         2.263576
 C        -1.103423        -1.324743         2.785744
 C        -0.682354        -0.093353         2.002126
 H        -0.310027         0.463282        -0.463601
 H        -3.336188         0.978089         2.328598
 H        -3.493997         1.894167         0.798421
 H        -3.125971        -0.493866        -0.517347
 H        -4.311213        -1.858146         1.719037
 H        -2.959904        -2.437372         0.668286
 H        -2.709833        -2.627459         3.412448
 H        -0.685669        -1.194422         3.823682
 H        -0.359875         0.792015         2.660447
 H         0.282270        -0.100223         1.351345
