19
Iteration:  2741charge 0 multiplicity 1
 O        -1.080137         1.334031        -0.075378
 C        -1.695537         0.441420         0.958343
 C        -3.078525         0.913674         1.205046
 C        -2.822827        -0.443012         0.507512
 C        -3.246734        -1.600524         1.298317
 C        -2.396619        -1.939841         2.574773
 O        -1.115337        -2.700992         2.368166
 C        -1.029523        -1.388252         2.880271
 C        -0.553454        -0.277316         1.837651
 H        -0.517244         0.694480        -0.621796
 H        -3.674479         0.858725         2.192937
 H        -3.368710         1.725771         0.519891
 H        -3.019201        -0.434287        -0.608750
 H        -4.262139        -1.534185         1.673391
 H        -3.303090        -2.626204         0.844602
 H        -2.805000        -2.513817         3.375846
 H        -0.795343        -1.266223         3.992569
 H        -0.003164         0.520296         2.336265
 H         0.153202        -0.923026         1.295228
