19
Iteration:  1261charge 0 multiplicity 1
 O        -1.019979         1.047593        -0.175857
 C        -1.668452         0.345774         0.881192
 C        -3.019697         0.891032         1.078768
 C        -2.806303        -0.517071         0.470348
 C        -3.191373        -1.664030         1.412919
 C        -2.354325        -2.116340         2.576749
 O        -0.983379        -2.581489         2.299824
 C        -1.124749        -1.250564         2.845733
 C        -0.805856         0.011081         2.109903
 H        -1.027789         1.999303         0.104240
 H        -3.579556         1.121119         1.967091
 H        -3.283091         1.708663         0.318887
 H        -3.081807        -0.569458        -0.591510
 H        -4.195379        -1.336221         1.777990
 H        -3.385797        -2.552461         0.725658
 H        -2.858154        -2.738591         3.322449
 H        -0.708351        -1.119856         3.888454
 H        -1.042257         0.698219         2.907720
 H         0.275540         0.015309         1.904119
