19
Iteration:  3173charge 0 multiplicity 1
 O        -0.991875         0.774427        -0.165367
 C        -1.587096         0.314178         0.951816
 C        -2.943274         1.061915         1.263798
 C        -2.900400        -0.360587         0.721842
 C        -3.302311        -1.646097         1.425512
 C        -2.312584        -2.131237         2.383004
 O        -1.009740        -2.400806         1.889351
 C        -1.211319        -1.265651         2.922950
 C        -0.846991         0.007647         2.205370
 H        -0.141356         0.350287        -0.275851
 H        -3.400986         1.196576         2.272578
 H        -3.256551         1.948768         0.756287
 H        -3.204476        -0.402256        -0.291183
 H        -4.241075        -1.499621         1.986497
 H        -3.476725        -2.518589         0.687443
 H        -2.420567        -2.918353         3.103739
 H        -0.657160        -1.620495         3.831562
 H        -0.700532         0.956916         2.729453
 H         0.172557        -0.139103         1.931318
