19
Iteration:  3688
 O        -1.048035         1.157580        -0.132381
 C        -1.661848         0.371594         0.785341
 C        -3.034438         0.802382         1.478883
 C        -2.883807        -0.405889         0.592232
 C        -3.080550        -1.723577         1.182813
 C        -2.385995        -1.924151         2.442358
 O        -1.111737        -2.630733         2.432950
 C        -1.163143        -1.170925         2.851119
 C        -0.676412        -0.230406         1.842913
 H        -0.296462         1.625831         0.323613
 H        -3.124712         0.576044         2.508066
 H        -3.276567         1.768234         1.174406
 H        -3.349589        -0.429960        -0.446643
 H        -4.190799        -1.736240         1.247711
 H        -2.956567        -2.507133         0.488164
 H        -3.128069        -2.192177         3.178338
 H        -0.881446        -1.055262         3.895720
 H        -0.334509         0.631720         2.298046
 H         0.127254        -0.647365         1.237058
