19
Iteration:   635
 O        -0.904843         0.832640        -0.105064
 C        -1.704715         0.324869         0.905832
 C        -2.984789         1.001419         0.958045
 C        -2.911372        -0.562557         0.550414
 C        -3.267843        -1.693532         1.451101
 C        -2.185747        -2.154618         2.458620
 O        -0.865561        -2.464901         2.158061
 C        -1.130891        -1.200172         2.907750
 C        -1.033526         0.127430         2.247893
 H        -1.303102         1.667373        -0.457081
 H        -3.602285         1.310507         1.831378
 H        -3.054153         1.666531         0.146696
 H        -2.845139        -0.851481        -0.537484
 H        -4.166566        -1.521480         2.113463
 H        -3.591469        -2.628364         0.906341
 H        -2.698574        -2.762324         3.294827
 H        -0.760650        -1.162588         3.893472
 H        -1.541202         0.777740         2.953357
 H        -0.064556         0.588016         2.066857
