19
Iteration:  3701charge 0 multiplicity 1
 O        -1.054135         1.205133        -0.150029
 C        -1.652151         0.338418         0.940222
 C        -2.964509         0.766002         1.485951
 C        -2.855984        -0.419323         0.397115
 C        -3.188738        -1.735287         1.195026
 C        -2.425874        -1.988328         2.527705
 O        -1.121457        -2.523657         2.412035
 C        -1.187139        -1.186483         2.841934
 C        -0.612925        -0.218598         1.790605
 H        -0.389679         1.696772         0.325721
 H        -3.217875         0.482921         2.527193
 H        -3.454457         1.655633         1.172015
 H        -3.183758        -0.175598        -0.665454
 H        -4.231438        -1.770548         1.628049
 H        -2.915339        -2.592135         0.622578
 H        -2.874105        -2.480568         3.394283
 H        -0.938245        -1.036365         3.903801
 H        -0.076411         0.515992         2.281677
 H         0.134388        -0.779034         1.292187
