19
Iteration:  4470
 O        -1.012847         1.182165        -0.220950
 C        -1.672617         0.418368         0.886379
 C        -3.033921         0.981390         1.405563
 C        -3.021743        -0.384567         0.610953
 C        -3.072869        -1.776084         1.225798
 C        -2.513001        -2.026886         2.544090
 O        -1.022634        -2.659553         2.461408
 C        -1.198800        -1.309303         2.770126
 C        -0.602469        -0.179982         1.852358
 H        -0.326500         1.777877         0.063953
 H        -3.233584         1.059837         2.507241
 H        -3.340961         1.910869         0.947870
 H        -3.124418        -0.366060        -0.497844
 H        -4.096878        -2.126924         1.186078
 H        -2.631183        -2.511062         0.523643
 H        -3.113047        -2.584942         3.319419
 H        -0.800249        -1.148548         3.862112
 H        -0.122293         0.657202         2.359516
 H         0.136223        -0.613913         1.161380
