19
Iteration:  3006charge 0 multiplicity 1
 O        -1.022873         0.826085        -0.195588
 C        -1.617451         0.437095         1.004174
 C        -2.878514         1.124482         1.266670
 C        -2.947573        -0.386743         0.647293
 C        -3.309838        -1.666981         1.364672
 C        -2.336019        -2.133232         2.477485
 O        -0.957822        -2.492248         1.962959
 C        -1.118278        -1.292512         2.874956
 C        -0.847480         0.006458         2.229941
 H        -0.880709         0.026761        -0.787431
 H        -3.283997         1.137721         2.294512
 H        -3.232346         1.955395         0.645039
 H        -3.102500        -0.296492        -0.467802
 H        -4.369913        -1.750232         1.866137
 H        -3.329223        -2.507842         0.613727
 H        -2.721671        -2.914102         3.160049
 H        -0.810365        -1.573219         3.888598
 H        -0.710053         0.741193         3.061031
 H         0.200082        -0.125244         1.877744
