19
Iteration:   227
 O        -1.001863         1.205563        -0.243352
 C        -1.635601         0.442214         0.847740
 C        -3.087892         0.754775         1.205959
 C        -2.766782        -0.515359         0.496062
 C        -3.057546        -1.880583         1.166738
 C        -2.416880        -2.036465         2.514625
 O        -0.943676        -2.480784         2.607894
 C        -1.320784        -1.093857         2.951999
 C        -0.770856        -0.076039         2.022856
 H        -1.274595         0.609761        -0.999219
 H        -3.333818         0.637791         2.244705
 H        -3.582932         1.546873         0.749399
 H        -3.122656        -0.526349        -0.624126
 H        -4.084195        -1.814789         1.426593
 H        -2.821820        -2.719918         0.483436
 H        -3.002382        -2.602392         3.236043
 H        -1.226029        -0.827829         3.989605
 H        -0.338414         0.834179         2.484100
 H         0.002276        -0.763813         1.537196
