19
Iteration:   223
 O        -1.001001         1.167645        -0.218186
 C        -1.641410         0.432901         0.821414
 C        -3.098103         0.759530         1.214760
 C        -2.783856        -0.530637         0.476561
 C        -3.057524        -1.890976         1.153622
 C        -2.406366        -2.014205         2.518591
 O        -0.957406        -2.448101         2.587022
 C        -1.314612        -1.105325         2.975087
 C        -0.731338        -0.067737         2.031319
 H        -1.393670         0.696437        -0.950273
 H        -3.306704         0.831312         2.335883
 H        -3.660451         1.548957         0.659727
 H        -3.107835        -0.467439        -0.583969
 H        -4.163621        -1.877538         1.347911
 H        -2.773428        -2.710443         0.486895
 H        -3.043030        -2.619647         3.168269
 H        -1.159369        -0.961695         4.070944
 H        -0.341993         0.796304         2.524749
 H         0.094128        -0.646965         1.573682
