19
Iteration:  4532
 O        -0.924921         1.164627        -0.179306
 C        -1.619230         0.274947         0.861369
 C        -2.957369         0.837616         1.437719
 C        -2.965119        -0.482961         0.620422
 C        -3.220102        -1.794209         1.226442
 C        -2.413349        -1.977271         2.489688
 O        -1.103377        -2.515640         2.277708
 C        -1.230648        -1.184136         2.841411
 C        -0.594336        -0.095310         1.924667
 H        -0.894362         2.067696         0.120771
 H        -3.084957         0.648048         2.551322
 H        -3.563258         1.481374         0.875706
 H        -3.379602        -0.415577        -0.392094
 H        -4.297699        -1.645749         1.533059
 H        -3.116897        -2.691783         0.561530
 H        -2.986856        -2.546361         3.290203
 H        -0.870758        -1.168148         3.840717
 H        -0.188700         0.801944         2.487250
 H         0.242637        -0.764080         1.551357
