19
Iteration:  2942charge 0 multiplicity 1
 O        -0.946948         1.020850        -0.105466
 C        -1.643347         0.330422         0.942837
 C        -2.999078         0.928034         1.236759
 C        -2.908766        -0.384632         0.599725
 C        -3.326423        -1.666071         1.462824
 C        -2.348378        -2.035868         2.518111
 O        -1.113558        -2.477041         1.959291
 C        -1.093302        -1.347962         2.853726
 C        -0.677975        -0.022977         2.124727
 H        -0.460072         0.346851        -0.574577
 H        -3.388470         0.897857         2.274618
 H        -3.277115         1.723488         0.551651
 H        -3.164758        -0.676577        -0.444837
 H        -4.242038        -1.509897         1.944756
 H        -3.428865        -2.538996         0.761234
 H        -2.744665        -2.826709         3.303648
 H        -0.601281        -1.299840         3.835917
 H        -0.706355         0.844396         2.834504
 H         0.350069        -0.172272         1.799562
