19
Iteration:   758charge 0 multiplicity 1
 O        -0.869242         0.856695        -0.063428
 C        -1.726491         0.305034         0.933016
 C        -3.182188         0.981925         0.851272
 C        -2.952129        -0.509411         0.586627
 C        -3.404696        -1.620304         1.567302
 C        -2.171497        -2.170944         2.421734
 O        -0.791953        -2.471067         2.044022
 C        -1.167942        -1.210239         2.901177
 C        -0.869315         0.121900         2.280729
 H         0.090717         0.855725         0.144626
 H        -3.829239         1.330596         1.643555
 H        -3.226373         1.592619        -0.095301
 H        -2.908160        -0.749065        -0.486407
 H        -4.183205        -1.427105         2.365767
 H        -3.802794        -2.367513         0.873709
 H        -2.496320        -2.765212         3.300491
 H        -0.985801        -1.379217         3.918451
 H        -1.156345         0.920606         2.900280
 H         0.179387         0.131700         2.054736
