19
Iteration:  2280charge 0 multiplicity 1
 O        -0.836416         0.862471        -0.096933
 C        -1.676550         0.396828         1.001880
 C        -3.027274         1.046575         1.166997
 C        -3.075142        -0.360996         0.707315
 C        -3.403251        -1.596878         1.511471
 C        -2.331881        -2.107507         2.441457
 O        -0.981566        -2.575530         1.948495
 C        -0.978516        -1.336207         2.700766
 C        -0.785604         0.036589         2.212528
 H        -0.550288         0.070758        -0.666536
 H        -3.199158         1.272386         2.217012
 H        -3.018687         1.825246         0.380497
 H        -3.159513        -0.528640        -0.398674
 H        -4.259954        -1.351157         2.118382
 H        -3.769063        -2.387871         0.887373
 H        -2.755815        -2.785008         3.102701
 H        -0.586357        -1.535407         3.717858
 H        -1.109935         0.731917         3.037272
 H         0.243338         0.247229         1.882365
