19
Iteration:  3997
 O        -1.001212         0.829319        -0.232426
 C        -1.693314         0.449300         0.994859
 C        -3.076670         0.981873         1.222744
 C        -2.846434        -0.384376         0.633742
 C        -3.324003        -1.538971         1.392424
 C        -2.322107        -2.122975         2.465489
 O        -0.892397        -2.513070         2.053791
 C        -1.125968        -1.402979         2.863701
 C        -0.810426        -0.031625         2.143349
 H        -0.134923         1.189536         0.109389
 H        -3.430605         1.113796         2.308287
 H        -3.395173         1.729940         0.473954
 H        -2.837556        -0.338760        -0.417306
 H        -4.269436        -1.295973         2.004088
 H        -3.666133        -2.313193         0.630089
 H        -2.598985        -2.828807         3.286754
 H        -0.866961        -1.444039         3.963639
 H        -0.947593         0.741487         3.002847
 H         0.237508         0.067365         1.706892
