19
Iteration:  1927
 O        -0.891322         1.026559        -0.066290
 C        -1.648880         0.353492         0.907217
 C        -2.972398         1.002787         1.353094
 C        -2.974663        -0.416164         0.544439
 C        -3.229117        -1.694101         1.347751
 C        -2.399809        -2.029010         2.505957
 O        -1.059866        -2.503402         2.242132
 C        -1.158397        -1.284858         2.879559
 C        -0.666800        -0.185074         1.877532
 H        -1.400500         1.608732        -0.702573
 H        -3.340253         0.883418         2.358946
 H        -3.581522         1.840155         0.891346
 H        -3.206348        -0.521221        -0.591477
 H        -4.309916        -1.871543         1.590665
 H        -2.942943        -2.539329         0.638563
 H        -2.884073        -2.438236         3.394190
 H        -0.867617        -1.381801         3.970728
 H        -0.251139         0.726155         2.370567
 H         0.014599        -0.548275         1.104819
