19
Iteration:  2669
 O        -1.067300         1.021101        -0.189198
 C        -1.680991         0.364356         0.940983
 C        -2.892958         0.969220         1.561901
 C        -2.891287        -0.297092         0.619770
 C        -3.120360        -1.707250         1.178277
 C        -2.405227        -2.063456         2.393109
 O        -1.061512        -2.575394         2.364808
 C        -1.289813        -1.164357         2.838027
 C        -0.631874        -0.162543         1.868788
 H        -0.419471         0.489647        -0.723153
 H        -3.184953         0.696823         2.530844
 H        -3.255385         1.879693         1.088505
 H        -3.461360        -0.359069        -0.246730
 H        -4.165308        -2.033360         1.369884
 H        -2.882801        -2.442393         0.439872
 H        -2.973351        -2.524794         3.218881
 H        -1.141555        -1.072503         3.885644
 H        -0.238453         0.750401         2.379977
 H         0.133318        -0.682542         1.260807
