19
Iteration:  3304
 O        -0.825727         0.719918        -0.087749
 C        -1.699790         0.368839         0.962159
 C        -3.021445         1.069267         1.146578
 C        -2.957600        -0.361932         0.693705
 C        -3.299729        -1.595856         1.486993
 C        -2.278587        -2.081230         2.371436
 O        -0.930530        -2.449550         1.941161
 C        -1.101165        -1.361946         2.859907
 C        -0.890987         0.002230         2.233670
 H        -1.295298         1.367032        -0.596877
 H        -3.339242         1.296691         2.205996
 H        -3.293379         1.694401         0.194267
 H        -3.474795        -0.618556        -0.248278
 H        -4.163921        -1.575995         2.168673
 H        -3.655922        -2.432776         0.804931
 H        -2.757014        -2.914502         2.935309
 H        -0.508889        -1.596334         3.834407
 H        -1.150420         0.875671         2.942179
 H         0.149117         0.191983         1.864848
