19
Iteration:  3927charge 0 multiplicity 1
 O        -0.912902         0.934731        -0.218821
 C        -1.610263         0.376261         0.946538
 C        -2.997512         0.910610         1.303225
 C        -2.871651        -0.447998         0.553982
 C        -3.377683        -1.611680         1.479868
 C        -2.268514        -2.195116         2.405193
 O        -1.015020        -2.559512         2.066428
 C        -1.197286        -1.233128         2.878226
 C        -0.768011         0.029175         2.184370
 H        -1.247781         1.832886        -0.486632
 H        -3.124455         1.089186         2.302481
 H        -3.303528         1.761783         0.648841
 H        -2.986807        -0.232043        -0.586903
 H        -4.340835        -1.389502         1.922564
 H        -3.577218        -2.567654         0.732083
 H        -2.664679        -2.831026         3.210192
 H        -0.966088        -1.261910         3.900294
 H        -0.675914         0.920436         2.849365
 H         0.235133        -0.181613         1.741635
