19
Iteration:  1846
 O        -1.091206         1.131715        -0.139378
 C        -1.625601         0.412347         0.892145
 C        -3.043387         0.981805         1.425974
 C        -2.921217        -0.330213         0.599100
 C        -3.137755        -1.807446         1.151388
 C        -2.440067        -1.971516         2.505778
 O        -1.082447        -2.628746         2.455956
 C        -1.199268        -1.248727         2.787708
 C        -0.572270        -0.207303         1.859681
 H        -0.300799         0.720240        -0.598570
 H        -3.029779         0.955039         2.508491
 H        -3.301248         1.989695         1.000039
 H        -3.172678        -0.277593        -0.434463
 H        -4.213944        -2.016679         1.269738
 H        -2.813906        -2.656789         0.450913
 H        -3.071569        -2.336392         3.358950
 H        -1.001148        -1.162015         3.856006
 H         0.093079         0.541945         2.425574
 H         0.256846        -0.654554         1.264169
