19
Iteration:  4361
 O        -1.014088         1.137235        -0.146037
 C        -1.672533         0.384998         0.857351
 C        -2.994663         0.925794         1.436364
 C        -2.933574        -0.338556         0.640958
 C        -3.020705        -1.758321         1.169366
 C        -2.415978        -1.978264         2.477009
 O        -1.132767        -2.671674         2.516068
 C        -1.108154        -1.273183         2.787212
 C        -0.688798        -0.214611         1.762846
 H        -0.976129         2.098063        -0.023079
 H        -3.127071         0.712993         2.514481
 H        -3.477515         1.791441         1.026910
 H        -3.538186        -0.318305        -0.263578
 H        -4.122041        -1.938640         1.299388
 H        -2.581076        -2.461169         0.427515
 H        -3.121162        -2.340263         3.257231
 H        -1.174566        -0.839884         3.858533
 H        -0.114267         0.598175         2.200699
 H        -0.001609        -0.639449         1.034672
