19
Iteration:  3320
 O        -0.789382         0.720302        -0.134779
 C        -1.667687         0.386069         0.919331
 C        -2.992818         1.130886         1.185710
 C        -3.037368        -0.393887         0.716082
 C        -3.339728        -1.667488         1.481616
 C        -2.259076        -2.280641         2.445071
 O        -0.929662        -2.494155         1.940329
 C        -1.130872        -1.280313         2.776977
 C        -0.916638         0.105818         2.225432
 H        -1.036234         1.512528        -0.611002
 H        -3.060932         1.462662         2.213287
 H        -3.431387         1.740671         0.477020
 H        -3.146447        -0.184700        -0.315902
 H        -4.247192        -1.453941         2.101126
 H        -3.620592        -2.416757         0.726100
 H        -2.530046        -2.906684         3.292538
 H        -0.910538        -1.332015         3.789998
 H        -1.118420         0.751820         3.049692
 H         0.151978         0.279847         2.192748
