19
Iteration:  1686charge 0 multiplicity 1
 O        -1.008547         1.139390        -0.158129
 C        -1.644208         0.402397         0.840084
 C        -2.918268         0.889134         1.384643
 C        -2.825264        -0.365100         0.551245
 C        -3.134661        -1.738554         1.184939
 C        -2.402019        -2.025425         2.464424
 O        -1.051927        -2.643873         2.479394
 C        -1.280846        -1.195013         2.920437
 C        -0.707400        -0.169496         1.901363
 H        -1.580524         1.203390        -0.980507
 H        -3.229967         0.723944         2.349338
 H        -3.445217         1.739851         0.845252
 H        -3.183529        -0.256643        -0.462950
 H        -4.207873        -1.871038         1.417141
 H        -2.960088        -2.561632         0.530890
 H        -2.958031        -2.447478         3.347091
 H        -0.851393        -1.149031         3.934266
 H        -0.412892         0.724051         2.449153
 H         0.157299        -0.514778         1.294568
