19
Iteration:   709
 O        -0.831970         0.846001        -0.109989
 C        -1.649559         0.335509         0.997591
 C        -3.031007         0.856208         0.957765
 C        -2.841897        -0.611811         0.608812
 C        -3.365775        -1.737664         1.446586
 C        -2.266016        -1.971916         2.509269
 O        -0.986137        -2.324673         1.949492
 C        -1.029337        -1.204020         2.875922
 C        -1.002301         0.155851         2.372749
 H        -1.120670         0.258853        -0.825297
 H        -3.674391         0.982962         1.866483
 H        -3.154396         1.574363         0.193750
 H        -2.927055        -0.635350        -0.468225
 H        -4.312228        -1.652472         1.992106
 H        -3.327310        -2.746073         0.967349
 H        -2.503900        -2.748165         3.245357
 H        -0.559211        -1.506366         3.875077
 H        -1.680857         0.719829         3.139164
 H        -0.003586         0.644804         2.170742
