19
Iteration:  3027
 O        -0.960349         0.865783        -0.140447
 C        -1.598930         0.275338         0.959949
 C        -3.004218         0.982411         1.313847
 C        -2.920943        -0.459466         0.702069
 C        -3.332615        -1.621098         1.404303
 C        -2.362702        -2.103321         2.443295
 O        -1.058949        -2.396879         1.919013
 C        -1.104123        -1.256953         2.787706
 C        -0.721991         0.020750         2.201924
 H        -0.245187         0.196646        -0.278571
 H        -3.317324         1.379327         2.290268
 H        -3.331624         1.695770         0.542198
 H        -3.114423        -0.433206        -0.399529
 H        -4.329343        -1.721725         1.947647
 H        -3.418064        -2.335961         0.576038
 H        -2.811716        -2.598920         3.247055
 H        -0.711007        -1.460326         3.813088
 H        -0.790526         0.760242         3.016722
 H         0.326504         0.057964         1.839780
