19
Iteration:   615charge 0 multiplicity 1
 O        -0.890786         0.832564        -0.203666
 C        -1.666343         0.387662         0.930210
 C        -3.162535         0.887668         0.935717
 C        -2.788771        -0.517843         0.526330
 C        -3.206836        -1.710199         1.442698
 C        -2.327113        -2.026790         2.598114
 O        -0.936358        -2.453383         2.103011
 C        -1.051708        -1.284334         2.892186
 C        -0.966630         0.134928         2.325774
 H        -0.918375         1.786071        -0.116409
 H        -3.548731         0.989600         1.986493
 H        -3.608497         1.500344         0.211111
 H        -3.059340        -0.708084        -0.541951
 H        -4.242715        -1.611483         1.789596
 H        -3.226094        -2.596283         0.818634
 H        -2.730934        -2.670159         3.425581
 H        -0.594519        -1.317118         3.843969
 H        -1.432308         0.765037         3.008268
 H         0.051213         0.427694         2.183422
