19
Iteration:  2379charge 0 multiplicity 1
 O        -0.904728         0.882342        -0.146163
 C        -1.664705         0.384583         0.951962
 C        -3.117000         1.032387         1.134611
 C        -2.848149        -0.452686         0.603210
 C        -3.320727        -1.550255         1.567119
 C        -2.315478        -2.095268         2.506728
 O        -1.055056        -2.542392         1.928325
 C        -1.068386        -1.358087         2.806275
 C        -0.782348        -0.018275         2.187045
 H        -0.171753         1.425028         0.271555
 H        -3.310559         1.052540         2.240177
 H        -3.587760         1.717165         0.426724
 H        -2.970369        -0.681875        -0.454313
 H        -4.148206        -1.287339         2.226151
 H        -3.738771        -2.370252         0.990132
 H        -2.746945        -2.750923         3.186341
 H        -0.492561        -1.564402         3.753907
 H        -0.895857         0.896207         2.861498
 H         0.224674        -0.097485         1.704446
