19
Iteration:  2815charge 0 multiplicity 1
 O        -1.071603         0.960367        -0.239377
 C        -1.616208         0.345456         0.947741
 C        -2.898321         0.856265         1.471478
 C        -2.860380        -0.358636         0.633062
 C        -3.216068        -1.640960         1.215168
 C        -2.435417        -2.058556         2.452577
 O        -1.085972        -2.533327         2.148087
 C        -1.225869        -1.226238         2.916947
 C        -0.649751         0.026786         2.030789
 H        -0.781243         0.267616        -0.859716
 H        -2.995762         0.716418         2.587222
 H        -3.179804         1.818241         1.034432
 H        -3.077460        -0.159460        -0.451075
 H        -4.358846        -1.860217         1.467341
 H        -2.908317        -2.533885         0.632338
 H        -2.948311        -2.616439         3.312460
 H        -0.876783        -1.258268         3.958777
 H        -0.543147         0.784345         2.850062
 H         0.411853        -0.222593         1.728835
