19
Iteration:  2440
 O        -0.847946         1.000211        -0.109542
 C        -1.688196         0.337862         0.909944
 C        -2.991391         0.933782         1.266006
 C        -2.935933        -0.429216         0.562933
 C        -3.329173        -1.633099         1.494834
 C        -2.346058        -2.118295         2.480604
 O        -1.043138        -2.463771         2.016765
 C        -1.120679        -1.269115         2.819033
 C        -0.756214        -0.029129         2.149323
 H        -1.028171         0.272954        -0.788612
 H        -3.606347         0.873774         2.200383
 H        -3.292248         1.748394         0.572040
 H        -3.220298        -0.242328        -0.503929
 H        -4.277055        -1.439181         2.046618
 H        -3.373843        -2.558523         0.830410
 H        -2.677573        -2.852040         3.358693
 H        -0.492514        -1.453318         3.685547
 H        -0.678621         0.846928         2.808508
 H         0.323999        -0.194202         1.896890
