19
Iteration:  2331
 O        -0.867575         0.693862        -0.168969
 C        -1.646724         0.398359         0.991805
 C        -2.928543         1.076596         1.223563
 C        -2.908630        -0.415515         0.750564
 C        -3.408217        -1.645753         1.481888
 C        -2.337462        -2.145709         2.444508
 O        -0.996568        -2.434245         1.833420
 C        -1.116664        -1.274218         2.818553
 C        -0.756425         0.066341         2.298634
 H        -1.434675         1.183341        -0.782751
 H        -3.347832         1.204361         2.224323
 H        -3.370986         1.695007         0.373051
 H        -3.252702        -0.323037        -0.314946
 H        -4.420274        -1.536648         1.970055
 H        -3.601243        -2.443754         0.652779
 H        -2.639180        -2.974944         3.232607
 H        -0.748833        -1.505679         3.823212
 H        -0.939905         0.887101         3.000486
 H         0.231030         0.025528         1.886710
