19
Iteration:  3646charge 0 multiplicity 1
 O        -1.170757         0.997245        -0.247053
 C        -1.652755         0.452760         0.962241
 C        -2.956342         1.052417         1.397005
 C        -2.867556        -0.273372         0.679718
 C        -2.945061        -1.763692         1.073733
 C        -2.395270        -2.072433         2.519080
 O        -1.106766        -2.665618         2.413783
 C        -1.243184        -1.283786         2.910295
 C        -0.656257        -0.179594         1.871804
 H        -1.016886         1.943245        -0.132855
 H        -3.108957         0.948912         2.456967
 H        -3.452843         1.863622         0.931450
 H        -3.164356        -0.078807        -0.413327
 H        -4.068514        -1.983872         1.135282
 H        -2.507850        -2.418282         0.337462
 H        -3.044103        -2.497839         3.282002
 H        -1.075735        -1.031906         3.936964
 H        -0.135422         0.597385         2.397655
 H         0.009317        -0.751334         1.258739
