19
Iteration:  3361
 O        -0.947133         0.734744        -0.146860
 C        -1.674052         0.301537         1.023613
 C        -3.027931         0.954815         1.146091
 C        -2.864348        -0.395130         0.598690
 C        -3.344733        -1.568632         1.477203
 C        -2.267614        -2.106202         2.429573
 O        -1.042779        -2.425569         1.904294
 C        -1.050156        -1.317702         2.851404
 C        -0.789650         0.054303         2.288382
 H        -0.663724         1.652502         0.171109
 H        -3.559620         1.180118         2.065654
 H        -3.338465         1.719799         0.412987
 H        -3.205739        -0.537859        -0.380958
 H        -4.285491        -1.385055         1.994977
 H        -3.412430        -2.302880         0.555461
 H        -2.582381        -2.614529         3.373185
 H        -0.725328        -1.627746         3.866235
 H        -0.902322         0.864080         3.080533
 H         0.144179         0.110021         1.768767
