19
Iteration:  1482
 O        -0.880543         0.752635        -0.137894
 C        -1.674835         0.428234         0.941661
 C        -2.990996         1.060798         1.093937
 C        -3.008093        -0.372296         0.546198
 C        -3.247693        -1.727015         1.376050
 C        -2.264074        -2.201646         2.491962
 O        -0.858535        -2.431255         2.083890
 C        -1.239046        -1.315150         2.949351
 C        -0.926497         0.051360         2.256653
 H        -1.173668         1.603988        -0.563306
 H        -3.302664         1.292989         2.119489
 H        -3.338638         1.821943         0.325201
 H        -3.129459        -0.385459        -0.526591
 H        -4.121061        -1.623709         1.937648
 H        -3.203916        -2.586607         0.698557
 H        -2.694912        -2.918846         3.218891
 H        -0.907880        -1.201523         3.951743
 H        -0.734898         0.941779         2.899119
 H         0.059256        -0.095277         1.750441
