19
Iteration:    83charge 0 multiplicity 1
 O        -0.764665         0.847005        -0.020047
 C        -1.696433         0.332240         0.917584
 C        -3.188056         0.790721         0.901091
 C        -2.772512        -0.627515         0.607844
 C        -3.207038        -1.826692         1.336153
 C        -2.304960        -2.023080         2.649620
 O        -1.003317        -2.349653         2.124513
 C        -1.066656        -1.191660         2.827210
 C        -1.044347         0.306257         2.245824
 H        -1.160238         0.818856        -0.896124
 H        -3.518300         1.136962         1.888190
 H        -3.474781         1.513976         0.045822
 H        -2.655375        -0.806125        -0.555670
 H        -4.244789        -1.612781         1.598352
 H        -3.131166        -2.739651         0.690713
 H        -2.568457        -2.680888         3.519255
 H        -0.580772        -1.239438         3.836481
 H        -1.622649         0.824467         3.090980
 H         0.018673         0.795026         2.109277
