19
Iteration:  2529charge 0 multiplicity 1
 O        -0.975559         1.084243        -0.146477
 C        -1.660909         0.412858         0.946406
 C        -3.005124         1.049966         1.261017
 C        -2.953891        -0.368152         0.638470
 C        -3.271113        -1.699824         1.353660
 C        -2.304861        -2.111059         2.514608
 O        -1.074342        -2.685482         2.265918
 C        -1.100176        -1.339009         2.763265
 C        -0.703899        -0.000196         1.969868
 H        -0.473507         0.421795        -0.725968
 H        -3.215235         1.239379         2.341724
 H        -3.474318         1.856317         0.752414
 H        -3.148603        -0.410318        -0.427150
 H        -4.327048        -1.847875         1.599133
 H        -2.992748        -2.481889         0.562610
 H        -2.928392        -2.605677         3.393084
 H        -0.914455        -1.336317         3.805549
 H        -0.577226         0.732136         2.794419
 H         0.251850        -0.188464         1.446930
