19
Iteration:  1986charge 0 multiplicity 1
 O        -1.057659         0.929537        -0.271467
 C        -1.626930         0.294683         0.936178
 C        -2.920583         0.973563         1.407056
 C        -2.958717        -0.276497         0.603032
 C        -3.223753        -1.671735         1.248489
 C        -2.406533        -2.025040         2.514887
 O        -1.017026        -2.572296         2.178494
 C        -1.173266        -1.341570         2.812933
 C        -0.726050         0.004634         2.129210
 H        -0.142191         0.814657        -0.533723
 H        -3.146247         0.856384         2.527804
 H        -3.264274         1.837302         0.878648
 H        -3.121169        -0.261153        -0.414057
 H        -4.260036        -1.647653         1.651428
 H        -3.138930        -2.523159         0.611391
 H        -2.881357        -2.524658         3.340514
 H        -0.663544        -1.271610         3.756562
 H        -0.674000         0.764309         2.844258
 H         0.312747        -0.166577         1.814954
