19
Iteration:  3577
 O        -1.019680         1.222041        -0.143072
 C        -1.639499         0.358077         0.874253
 C        -3.051152         0.806244         1.375866
 C        -2.901869        -0.366790         0.498863
 C        -3.217026        -1.818177         1.268932
 C        -2.445704        -1.921701         2.589576
 O        -1.111949        -2.556495         2.306607
 C        -1.150558        -1.286931         2.849916
 C        -0.545338        -0.184574         1.870355
 H        -0.286142         1.693139         0.241537
 H        -3.360641         0.653521         2.424049
 H        -3.572135         1.599923         0.802468
 H        -2.954877        -0.401377        -0.588806
 H        -4.336777        -1.776646         1.564988
 H        -2.944098        -2.670739         0.641998
 H        -3.036241        -2.283424         3.450292
 H        -0.655833        -1.204259         3.907504
 H        -0.187956         0.591341         2.483830
 H         0.250487        -0.785995         1.339346
