19
Iteration:  4734charge 0 multiplicity 1
 O        -0.877193         0.929210        -0.086476
 C        -1.698550         0.360129         0.882601
 C        -3.045250         0.877610         1.252710
 C        -2.929668        -0.391742         0.550955
 C        -3.339503        -1.710390         1.413951
 C        -2.312670        -2.061914         2.546563
 O        -1.032338        -2.494573         2.078469
 C        -1.017432        -1.281879         2.791692
 C        -0.793305        -0.007459         2.055560
 H        -0.607806         1.839811         0.200758
 H        -3.305812         0.773107         2.306446
 H        -3.637086         1.591546         0.701303
 H        -3.216876        -0.224779        -0.500035
 H        -4.302131        -1.587446         1.877805
 H        -3.408918        -2.518807         0.675083
 H        -2.614069        -2.662887         3.351935
 H        -0.750450        -1.170256         3.841929
 H        -0.819245         0.808953         2.832368
 H         0.259975        -0.130299         1.721283
