19
Iteration:  2881charge 0 multiplicity 1
 O        -0.934200         1.120582        -0.076567
 C        -1.670742         0.410741         0.905660
 C        -2.996688         0.976349         1.216289
 C        -2.941859        -0.449600         0.575776
 C        -3.286556        -1.653437         1.446704
 C        -2.357872        -2.010545         2.516545
 O        -1.018098        -2.611809         2.125120
 C        -1.059337        -1.367661         2.821980
 C        -0.786254        -0.119819         2.039218
 H        -0.403478         0.384845        -0.452045
 H        -3.181833         1.250988         2.232471
 H        -3.338284         1.878518         0.576034
 H        -3.263985        -0.331275        -0.467215
 H        -4.375742        -1.342225         1.827840
 H        -3.619267        -2.530041         0.880024
 H        -2.760483        -2.745530         3.253642
 H        -0.821775        -1.612213         3.848485
 H        -0.631246         0.853552         2.528343
 H         0.230814        -0.284412         1.548172
