19
Iteration:  2936
 O        -0.987583         1.041428        -0.120135
 C        -1.628314         0.319435         0.979918
 C        -2.962374         0.908230         1.221938
 C        -2.871953        -0.425249         0.614088
 C        -3.336293        -1.629516         1.470758
 C        -2.384379        -2.039081         2.499660
 O        -1.124342        -2.469634         1.953683
 C        -1.050976        -1.299156         2.862666
 C        -0.712519        -0.060656         2.140215
 H        -0.319140         0.435031        -0.570672
 H        -3.384404         0.845617         2.195328
 H        -3.511748         1.545607         0.470360
 H        -3.030954        -0.503580        -0.448747
 H        -4.423877        -1.430199         1.840105
 H        -3.336642        -2.521682         0.845788
 H        -2.595224        -2.655674         3.311683
 H        -0.541300        -1.617395         3.817743
 H        -0.636216         0.848673         2.730582
 H         0.330842        -0.281310         1.814001
