19
Iteration:   778
 O        -0.962236         0.818972        -0.072320
 C        -1.723139         0.335860         0.982619
 C        -3.034811         0.892617         0.919445
 C        -2.909413        -0.575508         0.509004
 C        -3.290537        -1.635808         1.517459
 C        -2.269835        -2.119438         2.448949
 O        -0.917790        -2.261089         2.017711
 C        -1.084008        -1.252841         2.967476
 C        -0.920120         0.065643         2.255217
 H        -0.022103         1.017851         0.168529
 H        -3.533689         1.172448         1.796328
 H        -3.100364         1.582336         0.051500
 H        -2.986504        -0.787161        -0.576140
 H        -4.093323        -1.220127         2.196757
 H        -3.793341        -2.497868         1.002150
 H        -2.602122        -3.034988         2.996612
 H        -0.684425        -1.358567         3.888870
 H        -1.024794         0.891354         3.005635
 H         0.107714        -0.122924         1.953620
