19
Iteration:  4777charge 0 multiplicity 1
 O        -1.072358         0.841282        -0.220436
 C        -1.635842         0.386372         1.031133
 C        -2.974752         0.989884         1.241663
 C        -2.816034        -0.437339         0.702213
 C        -3.281208        -1.667855         1.314890
 C        -2.356452        -2.202113         2.434868
 O        -0.966142        -2.424650         2.056364
 C        -1.203511        -1.271087         2.833911
 C        -0.732285         0.031649         2.172991
 H        -0.937339         1.824910        -0.055555
 H        -3.243287         0.976720         2.269848
 H        -3.304030         1.799296         0.596518
 H        -2.888440        -0.649654        -0.376502
 H        -4.250137        -1.485881         1.811372
 H        -3.624651        -2.482833         0.709803
 H        -2.725401        -2.669319         3.318031
 H        -0.680062        -1.460506         3.744933
 H        -0.562795         0.830896         2.909795
 H         0.236796        -0.217000         1.726211
