19
Iteration:  4014charge 0 multiplicity 1
 O        -0.989712         0.953682        -0.222441
 C        -1.609612         0.345098         0.913070
 C        -2.956913         1.006385         1.184606
 C        -2.860818        -0.428303         0.599704
 C        -3.336189        -1.626727         1.518394
 C        -2.390164        -2.179205         2.478758
 O        -0.857176        -2.450353         2.003812
 C        -1.218795        -1.356218         2.854379
 C        -0.863955        -0.002323         2.200204
 H        -0.117963         1.379405         0.034333
 H        -3.345972         1.090254         2.178181
 H        -3.284918         1.832288         0.623758
 H        -3.228365        -0.652781        -0.417910
 H        -4.142530        -1.288173         2.167647
 H        -3.863436        -2.485751         1.062750
 H        -2.841133        -2.994565         3.051892
 H        -0.739249        -1.415203         3.813691
 H        -0.756782         0.798009         2.876065
 H         0.116000        -0.329303         1.922162
