19
Iteration:  3087
 O        -0.985661         1.095552        -0.091446
 C        -1.676206         0.425370         0.994783
 C        -3.024641         1.029040         1.008587
 C        -2.913912        -0.471906         0.581777
 C        -3.371033        -1.571991         1.580759
 C        -2.264654        -2.116794         2.486642
 O        -1.058021        -2.654592         1.960832
 C        -1.085774        -1.398981         2.860383
 C        -0.668921        -0.008254         2.213642
 H        -0.639377         0.533669        -0.836180
 H        -3.335691         1.222002         2.090038
 H        -3.062658         1.762479         0.229353
 H        -2.887731        -0.848013        -0.405202
 H        -4.200275        -1.186239         2.173822
 H        -3.819107        -2.401655         0.923735
 H        -2.862847        -2.743673         3.312736
 H        -0.603926        -1.589427         3.847264
 H        -0.821677         0.768787         3.035063
 H         0.396480        -0.116346         1.813450
