19
Iteration:  3407charge 0 multiplicity 1
 O        -0.878948         1.023402        -0.177008
 C        -1.628696         0.411089         0.954318
 C        -3.082885         0.924458         1.147118
 C        -2.839778        -0.463767         0.650641
 C        -3.305850        -1.608971         1.526037
 C        -2.302329        -2.137710         2.505791
 O        -1.092980        -2.588736         1.970705
 C        -1.141690        -1.270068         2.862972
 C        -0.796335         0.023025         2.125109
 H        -0.105653         1.436360         0.273558
 H        -3.645697         1.122322         2.073996
 H        -3.368609         1.591480         0.394088
 H        -3.094391        -0.836909        -0.393401
 H        -4.127590        -1.330000         2.249406
 H        -3.486332        -2.651942         0.953636
 H        -2.856923        -2.984005         3.037888
 H        -0.594691        -1.416736         3.753145
 H        -0.765928         0.930356         2.738138
 H         0.171339        -0.258997         1.763924
