19
Iteration:   319
 O        -1.085054         1.131717        -0.285133
 C        -1.653856         0.466211         0.900566
 C        -3.101793         0.792086         1.308125
 C        -2.818438        -0.537098         0.441652
 C        -2.986188        -1.926795         1.082984
 C        -2.354637        -1.915539         2.471588
 O        -1.096205        -2.574122         2.758163
 C        -1.295502        -1.073927         2.891238
 C        -0.596675        -0.139391         1.903398
 H        -1.112781         2.102816        -0.439145
 H        -3.175957         0.643934         2.454765
 H        -3.670113         1.650183         0.975426
 H        -3.124418        -0.320024        -0.525904
 H        -4.071276        -2.141981         1.204312
 H        -2.445529        -2.687988         0.529709
 H        -3.125722        -2.286793         3.187985
 H        -1.349003        -0.778413         3.964002
 H        -0.098116         0.671532         2.551446
 H         0.159910        -0.670349         1.362875
