19
Iteration:   130
 O        -1.039087         1.021978        -0.102070
 C        -1.671695         0.324812         0.904076
 C        -3.079597         0.900241         0.911546
 C        -2.739379        -0.635794         0.499295
 C        -3.302148        -1.787243         1.363592
 C        -2.281032        -2.132830         2.452294
 O        -0.847229        -2.324290         2.332858
 C        -1.273417        -1.154642         2.989917
 C        -0.846618         0.060547         2.164978
 H        -0.182732         0.535091        -0.330411
 H        -3.746820         0.957896         1.764415
 H        -3.285386         1.512882         0.127089
 H        -2.736273        -0.776772        -0.657386
 H        -4.147350        -1.464210         2.028496
 H        -3.552161        -2.710373         0.771419
 H        -2.649306        -2.869556         3.203148
 H        -0.999857        -1.062212         4.034364
 H        -0.989558         0.954956         2.880313
 H         0.203797        -0.040673         1.879476
