19
Iteration:  3881charge 0 multiplicity 1
 O        -0.943798         1.010844        -0.094391
 C        -1.631852         0.420948         0.953345
 C        -3.085691         1.001004         1.114945
 C        -2.895511        -0.447934         0.630198
 C        -3.263018        -1.653668         1.391667
 C        -2.284318        -2.058715         2.532167
 O        -1.110215        -2.626862         2.080187
 C        -1.064753        -1.272349         2.958843
 C        -0.752529        -0.074077         2.016133
 H        -0.674104         1.936064         0.229391
 H        -3.625233         0.821482         2.109152
 H        -3.440658         1.806410         0.505652
 H        -3.241559        -0.688025        -0.435619
 H        -4.320168        -1.654218         1.706199
 H        -3.094147        -2.587687         0.648833
 H        -2.921725        -2.548180         3.259656
 H        -0.367653        -1.494407         3.778912
 H        -0.433105         0.765622         2.614330
 H         0.118203        -0.393358         1.460194
