19
Iteration:  3788charge 0 multiplicity 1
 O        -0.985265         0.962152        -0.120474
 C        -1.717517         0.455398         0.888536
 C        -2.996706         0.970034         1.395275
 C        -2.896378        -0.401799         0.666912
 C        -3.104070        -1.789381         1.187747
 C        -2.365764        -2.076044         2.461299
 O        -1.093447        -2.605773         2.337393
 C        -1.218093        -1.197129         2.796765
 C        -0.667868        -0.081620         1.936978
 H        -1.087908         1.907044        -0.138509
 H        -2.924972         1.109350         2.499920
 H        -3.249204         1.890662         0.781243
 H        -3.468234        -0.236654        -0.304814
 H        -4.236478        -1.923815         1.313579
 H        -2.823437        -2.443283         0.393975
 H        -3.033607        -2.531895         3.222210
 H        -0.755274        -1.193932         3.832940
 H        -0.288235         0.810593         2.422149
 H         0.124893        -0.560175         1.328593
