19
Iteration:  4395charge 0 multiplicity 1
 O        -1.232237         1.202491        -0.249252
 C        -1.605993         0.427492         0.882103
 C        -2.863145         0.889587         1.434599
 C        -2.823570        -0.434284         0.578317
 C        -3.028693        -1.794199         1.174841
 C        -2.424327        -1.907803         2.503099
 O        -1.254449        -2.713366         2.478870
 C        -1.126493        -1.279381         2.815561
 C        -0.550016        -0.164262         1.871453
 H        -1.073677         2.121187         0.138682
 H        -3.198897         0.506632         2.447477
 H        -3.243652         1.833700         1.197683
 H        -3.278165        -0.119039        -0.384022
 H        -4.163698        -1.959317         1.165687
 H        -2.597817        -2.587281         0.521376
 H        -3.000716        -2.243164         3.363324
 H        -1.300224        -1.160400         3.962461
 H        -0.073371         0.705676         2.340682
 H         0.179438        -0.681487         1.272689
