19
Iteration:  1670
 O        -0.995317         1.019416        -0.255870
 C        -1.631735         0.376920         0.934454
 C        -3.027315         0.856727         1.413558
 C        -2.873308        -0.354060         0.534976
 C        -3.070371        -1.707898         1.155293
 C        -2.418090        -2.024338         2.495179
 O        -1.126875        -2.574461         2.446648
 C        -1.148063        -1.261874         2.844286
 C        -0.635056        -0.058922         1.972389
 H        -1.762753         1.452823        -0.716288
 H        -3.134569         0.838708         2.583204
 H        -3.329616         1.810685         1.062484
 H        -3.269222        -0.406637        -0.505056
 H        -4.149557        -1.826178         1.371435
 H        -2.740111        -2.478041         0.353462
 H        -3.175843        -2.513708         3.126783
 H        -1.200298        -1.016933         3.892684
 H        -0.538222         0.727266         2.766045
 H         0.312040        -0.535709         1.633417
