19
Iteration:  3702
 O        -1.059160         1.205214        -0.148306
 C        -1.646920         0.344887         0.949592
 C        -2.952852         0.760717         1.476928
 C        -2.861778        -0.415236         0.388443
 C        -3.196411        -1.741035         1.197457
 C        -2.441136        -1.990725         2.538691
 O        -1.112817        -2.521572         2.408885
 C        -1.185089        -1.180030         2.836623
 C        -0.604367        -0.224958         1.793835
 H        -0.393786         1.715649         0.327078
 H        -3.233850         0.467637         2.527176
 H        -3.493169         1.661737         1.151486
 H        -3.162427        -0.150877        -0.649922
 H        -4.252742        -1.758499         1.609433
 H        -2.925219        -2.630831         0.622369
 H        -2.872948        -2.502560         3.410841
 H        -0.964360        -1.051906         3.918558
 H        -0.032674         0.539670         2.290532
 H         0.141545        -0.774160         1.261279
