19
Iteration:  2035
 O        -0.881180         0.959761        -0.110039
 C        -1.692562         0.399469         0.990086
 C        -3.069747         0.961792         1.203156
 C        -2.820930        -0.437839         0.615729
 C        -3.388054        -1.619230         1.496755
 C        -2.354548        -2.075811         2.486756
 O        -1.067967        -2.555427         2.065753
 C        -1.149803        -1.331049         2.783796
 C        -0.616726        -0.060816         1.987020
 H        -0.747528         1.926314         0.122646
 H        -3.514028         0.921375         2.143363
 H        -3.377604         1.766826         0.498126
 H        -3.203569        -0.766594        -0.374302
 H        -4.283058        -1.310196         2.032428
 H        -3.670860        -2.529695         0.870043
 H        -2.595583        -2.673079         3.423697
 H        -0.884348        -1.240326         3.834832
 H        -0.331524         0.727621         2.789245
 H         0.310112        -0.243866         1.419288
