19
Iteration:  2844charge 0 multiplicity 1
 O        -0.961316         0.957515        -0.191328
 C        -1.679531         0.408300         0.972703
 C        -2.973364         1.039812         1.352125
 C        -2.940689        -0.350875         0.709442
 C        -3.255461        -1.696513         1.257543
 C        -2.373320        -2.079643         2.442464
 O        -1.014154        -2.570008         2.160778
 C        -1.201188        -1.324259         2.871856
 C        -0.652928        -0.002804         2.040122
 H        -0.985988         0.307901        -0.879128
 H        -3.214001         1.074793         2.434499
 H        -3.336905         1.679748         0.633640
 H        -3.174247        -0.249111        -0.362648
 H        -4.236619        -1.770872         1.698288
 H        -2.973023        -2.539488         0.578106
 H        -2.990418        -2.640615         3.211912
 H        -0.972186        -1.322982         3.926209
 H        -0.401453         0.748551         2.803531
 H         0.215355        -0.319253         1.508379
