19
Iteration:   770
 O        -0.944955         0.848677        -0.075395
 C        -1.716500         0.270491         1.011552
 C        -3.072590         0.916106         0.835171
 C        -2.982136        -0.530524         0.567081
 C        -3.299669        -1.628143         1.507482
 C        -2.241551        -2.122130         2.417899
 O        -0.850240        -2.347956         2.021626
 C        -1.172640        -1.239504         2.964990
 C        -0.856373         0.102216         2.254993
 H        -0.103393         0.911058         0.428100
 H        -3.593556         1.236994         1.783777
 H        -3.092239         1.634563        -0.003321
 H        -3.114342        -0.915634        -0.436816
 H        -4.082446        -1.162341         2.186243
 H        -3.757904        -2.523956         1.122486
 H        -2.632998        -2.970964         2.991536
 H        -0.651969        -1.372909         3.943597
 H        -0.940478         0.875519         2.955893
 H         0.195786         0.146395         1.987613
