19
Iteration:   764
 O        -0.900524         0.862459        -0.068554
 C        -1.721407         0.248337         0.970942
 C        -3.139950         0.957601         0.823639
 C        -2.987977        -0.516504         0.597549
 C        -3.368020        -1.601735         1.526746
 C        -2.164176        -2.136219         2.431303
 O        -0.803034        -2.427169         2.028273
 C        -1.231217        -1.238907         2.919253
 C        -0.830115         0.106027         2.276968
 H        -0.044045         0.888219         0.334117
 H        -3.752973         1.314118         1.658514
 H        -3.165303         1.634080        -0.004234
 H        -3.019207        -0.852966        -0.446437
 H        -4.110226        -1.320004         2.268905
 H        -3.784782        -2.490056         0.984321
 H        -2.578132        -2.832962         3.183296
 H        -0.817332        -1.415902         3.986743
 H        -0.999148         1.055396         2.945430
 H         0.251335         0.320570         1.986484
