19
Iteration:  4648charge 0 multiplicity 1
 O        -0.779079         0.970978        -0.136055
 C        -1.699517         0.385441         0.888921
 C        -3.030908         0.865361         1.372630
 C        -2.979408        -0.486521         0.594235
 C        -3.359508        -1.731461         1.333275
 C        -2.370370        -2.085808         2.500003
 O        -0.952371        -2.434662         2.119967
 C        -1.200127        -1.198285         2.825012
 C        -0.725372        -0.066394         1.999265
 H        -0.885213         1.854149         0.180144
 H        -3.096180         0.799208         2.519505
 H        -3.286192         1.808584         0.951450
 H        -3.398883        -0.416493        -0.404208
 H        -4.284053        -1.711065         1.872447
 H        -3.393583        -2.550793         0.658364
 H        -2.800326        -2.755227         3.169110
 H        -1.082393        -1.119825         3.950050
 H        -0.490654         0.939124         2.371470
 H         0.215095        -0.527031         1.638726
