19
Iteration:  4544
 O        -0.884830         1.118108        -0.122911
 C        -1.663258         0.407225         0.810573
 C        -2.992246         0.793562         1.403614
 C        -2.872151        -0.450898         0.570981
 C        -3.239758        -1.801400         1.321025
 C        -2.408423        -2.058008         2.503477
 O        -1.093225        -2.487211         2.261967
 C        -1.200685        -1.203813         2.857425
 C        -0.697892        -0.161392         1.847960
 H        -0.807674         1.935644         0.443375
 H        -3.064284         1.081557         2.472279
 H        -3.312310         1.725940         0.964000
 H        -3.420129        -0.210726        -0.368947
 H        -4.285145        -1.932881         1.664590
 H        -3.094765        -2.669248         0.605200
 H        -2.941995        -2.492228         3.449824
 H        -1.009924        -1.153535         3.940197
 H        -0.379018         0.813626         2.388936
 H         0.262154        -0.407325         1.247749
