19
Iteration:  2461
 O        -0.883550         0.850716        -0.100897
 C        -1.673858         0.383905         0.954119
 C        -2.961381         0.887858         1.340356
 C        -2.891572        -0.463342         0.691708
 C        -3.360005        -1.683414         1.360052
 C        -2.387410        -2.036930         2.387941
 O        -1.014952        -2.391460         1.993133
 C        -1.162418        -1.215590         2.839297
 C        -0.700228        -0.058379         2.144512
 H        -1.139091         0.509797        -0.967031
 H        -3.171892         1.085318         2.414211
 H        -3.557028         1.733674         0.891112
 H        -3.065666        -0.360958        -0.455482
 H        -4.234713        -1.481871         2.008370
 H        -3.449702        -2.509994         0.598584
 H        -2.615816        -2.816732         3.313084
 H        -1.030567        -1.064988         3.918129
 H        -0.577191         0.926538         2.693419
 H         0.270059        -0.047189         1.509309
