19
Iteration:  3066
 O        -0.902199         1.052073        -0.058933
 C        -1.646341         0.328023         0.942263
 C        -2.999948         0.951264         1.166165
 C        -2.847130        -0.473099         0.609018
 C        -3.346797        -1.548042         1.585651
 C        -2.299012        -2.122693         2.503519
 O        -1.075876        -2.502241         1.970011
 C        -1.122663        -1.363666         2.732921
 C        -0.809951        -0.046766         2.105422
 H        -0.069447         0.620617        -0.260563
 H        -3.524189         0.979922         2.185758
 H        -3.399200         1.547662         0.377720
 H        -3.174967        -0.594678        -0.392563
 H        -4.157714        -1.063879         2.085161
 H        -3.807104        -2.361346         0.970369
 H        -2.634205        -2.804976         3.398340
 H        -0.588830        -1.414335         3.693859
 H        -0.928031         0.793348         2.828804
 H         0.200290        -0.104912         1.607902
