19
Iteration:  2432charge 0 multiplicity 1
 O        -0.901486         1.020934        -0.123735
 C        -1.641731         0.401501         0.973222
 C        -2.988824         0.950153         1.200619
 C        -2.943255        -0.424550         0.539527
 C        -3.280217        -1.621228         1.486123
 C        -2.286535        -2.102338         2.551405
 O        -1.082317        -2.512368         2.000975
 C        -1.081489        -1.342764         2.834162
 C        -0.780486        -0.065959         2.159035
 H        -0.692130         0.399505        -0.892336
 H        -3.576100         1.179076         2.142149
 H        -3.282033         1.733422         0.532765
 H        -3.336161        -0.557608        -0.459198
 H        -4.220619        -1.484801         2.058141
 H        -3.545012        -2.495181         0.828386
 H        -2.753747        -2.772653         3.270082
 H        -0.629177        -1.303376         3.834376
 H        -0.938258         0.733616         2.844938
 H         0.154900        -0.011206         1.691320
