19
Iteration:  4666charge 0 multiplicity 1
 O        -0.989579         0.922527        -0.103365
 C        -1.617701         0.308684         0.975602
 C        -3.036393         0.945994         1.268390
 C        -2.906265        -0.390366         0.575197
 C        -3.255975        -1.659653         1.346419
 C        -2.270235        -2.093440         2.400631
 O        -0.997735        -2.516829         2.156233
 C        -1.202111        -1.205369         2.869703
 C        -0.737119        -0.080244         2.035300
 H        -0.929286         1.859961        -0.006481
 H        -3.425762         0.984166         2.269002
 H        -3.530080         1.731030         0.704832
 H        -3.100080        -0.401307        -0.473232
 H        -4.197757        -1.308240         1.837675
 H        -3.426542        -2.594281         0.716274
 H        -2.764361        -2.670273         3.265823
 H        -0.898641        -1.360432         3.908737
 H        -0.354557         0.769174         2.698109
 H         0.141673        -0.323048         1.393388
