19
Iteration:   285
 O        -1.068759         1.127340        -0.094946
 C        -1.729077         0.322613         0.866734
 C        -3.158104         0.709436         1.240336
 C        -2.869647        -0.529262         0.363459
 C        -2.929892        -1.855373         1.208464
 C        -2.425519        -1.806436         2.581101
 O        -1.134445        -2.498653         2.565234
 C        -1.199760        -1.042725         2.861762
 C        -0.596390        -0.171946         1.825420
 H        -0.457566         1.682219         0.398906
 H        -3.413182         0.552294         2.311133
 H        -3.527518         1.663269         0.763788
 H        -3.050250        -0.609618        -0.630314
 H        -3.855953        -2.460370         1.157251
 H        -2.275004        -2.592645         0.755192
 H        -3.049540        -2.141872         3.463855
 H        -0.922468        -0.694276         3.880436
 H        -0.196014         0.808714         2.321995
 H         0.289924        -0.685710         1.509676
