19
Iteration:   260charge 0 multiplicity 1
 O        -1.137597         1.255615        -0.128984
 C        -1.672464         0.346357         0.837655
 C        -3.067695         0.792752         1.143191
 C        -2.812791        -0.538310         0.469102
 C        -3.063616        -1.907442         1.121460
 C        -2.417855        -2.003425         2.514193
 O        -1.021201        -2.494200         2.725682
 C        -1.204901        -1.111040         2.921366
 C        -0.645063        -0.112440         1.866308
 H        -0.205087         1.391546        -0.095251
 H        -3.279730         0.806817         2.153075
 H        -3.502444         1.543922         0.499762
 H        -3.334270        -0.551604        -0.541304
 H        -4.108739        -1.894075         1.341164
 H        -3.034191        -2.835922         0.528126
 H        -3.001385        -2.489270         3.290481
 H        -1.065602        -0.692203         3.900190
 H        -0.124777         0.767486         2.313149
 H         0.207769        -0.726669         1.417782
