19
Iteration:  1752
 O        -1.137611         1.229161        -0.180761
 C        -1.612125         0.413735         0.910202
 C        -2.987756         0.782404         1.359341
 C        -2.881556        -0.410301         0.444824
 C        -3.111414        -1.709331         1.200127
 C        -2.431003        -1.882061         2.538642
 O        -1.190457        -2.663874         2.519991
 C        -1.103923        -1.280506         2.886864
 C        -0.578203        -0.207213         1.814405
 H        -0.266551         1.528261         0.073211
 H        -3.546544         0.486308         2.273857
 H        -3.308926         1.720516         1.037145
 H        -3.110320        -0.282852        -0.612053
 H        -4.206726        -1.923760         1.328755
 H        -2.811581        -2.498539         0.551725
 H        -3.187418        -2.235508         3.294212
 H        -0.664282        -1.175534         3.891797
 H        -0.090319         0.604582         2.322254
 H         0.305179        -0.653387         1.383161
