19
Iteration:   324charge 0 multiplicity 1
 O        -1.111009         1.127634        -0.281680
 C        -1.637809         0.454379         0.853151
 C        -3.052668         0.824123         1.291209
 C        -2.829903        -0.499522         0.472904
 C        -2.978378        -1.940962         1.083554
 C        -2.369480        -1.983041         2.473243
 O        -1.076104        -2.568451         2.772413
 C        -1.342401        -1.063633         2.887950
 C        -0.561226        -0.122591         1.934113
 H        -1.289621         2.099356        -0.237049
 H        -3.188473         0.654032         2.325556
 H        -3.582422         1.760788         1.007504
 H        -3.232966        -0.392454        -0.653894
 H        -4.046247        -2.166675         1.226026
 H        -2.513280        -2.743000         0.442406
 H        -3.078246        -2.291846         3.216155
 H        -1.479516        -0.779126         3.914526
 H        -0.122231         0.628527         2.510672
 H         0.193169        -0.650118         1.273393
