19
Iteration:  4478
 O        -1.080780         1.146392        -0.251282
 C        -1.651422         0.467946         0.958217
 C        -3.035759         0.947692         1.352710
 C        -2.926122        -0.316547         0.616822
 C        -3.131450        -1.773407         1.209759
 C        -2.387249        -2.044728         2.503186
 O        -1.088813        -2.688919         2.444984
 C        -1.196477        -1.314635         2.817241
 C        -0.612000        -0.171717         1.868819
 H        -0.537293         1.924217        -0.167251
 H        -3.096703         0.936523         2.481533
 H        -3.367799         1.814272         0.861905
 H        -3.119610        -0.248557        -0.447870
 H        -4.132962        -2.166489         1.247817
 H        -2.484114        -2.440756         0.582587
 H        -3.037430        -2.264196         3.440737
 H        -0.920737        -1.198917         3.857784
 H        -0.153329         0.638747         2.527368
 H         0.241285        -0.760547         1.415767
