19
Iteration:  1568
 O        -1.002796         1.156770        -0.096938
 C        -1.659670         0.394590         0.958219
 C        -3.053208         0.855698         1.113565
 C        -2.785523        -0.510884         0.526868
 C        -3.250298        -1.692091         1.385482
 C        -2.377844        -2.022862         2.535280
 O        -1.076834        -2.569385         2.219945
 C        -1.120708        -1.261508         2.866516
 C        -0.744617        -0.005676         2.064882
 H        -0.518970         0.499198        -0.617349
 H        -3.471169         0.898658         2.064941
 H        -3.207689         1.786560         0.480742
 H        -2.921364        -0.674781        -0.533937
 H        -4.353023        -1.701748         1.599274
 H        -3.213853        -2.681042         0.844021
 H        -2.817153        -2.508045         3.350271
 H        -0.686404        -1.342951         3.879861
 H        -0.417065         0.709653         2.865272
 H         0.182319        -0.368436         1.511154
