19
Iteration:   813charge 0 multiplicity 1
 O        -0.873485         0.759756        -0.168385
 C        -1.625322         0.487899         0.954678
 C        -3.081065         0.809752         1.082166
 C        -2.851276        -0.585944         0.641102
 C        -3.277416        -1.741329         1.438993
 C        -2.279070        -2.054959         2.506549
 O        -1.068985        -2.404248         1.996102
 C        -1.116876        -1.216866         2.755642
 C        -0.898290         0.255965         2.316405
 H         0.052602         1.051464         0.006686
 H        -3.385181         1.141165         2.120339
 H        -3.574640         1.419784         0.339651
 H        -2.917469        -0.652314        -0.434942
 H        -4.226230        -1.712342         2.087686
 H        -3.340877        -2.613476         0.782670
 H        -2.699046        -2.742753         3.282300
 H        -0.804568        -1.429002         3.729202
 H        -1.200858         0.943851         3.081167
 H         0.132533         0.540922         2.220612
