19
Iteration:  2589charge 0 multiplicity 1
 O        -1.037107         1.211316        -0.094028
 C        -1.560754         0.351917         0.944429
 C        -2.996846         0.790193         1.390961
 C        -2.924098        -0.470053         0.464654
 C        -3.312862        -1.766030         1.283960
 C        -2.475081        -1.947136         2.595643
 O        -1.122339        -2.547957         2.241714
 C        -1.123494        -1.249482         2.748508
 C        -0.535904        -0.123102         1.970531
 H        -0.310269         0.810179        -0.645525
 H        -3.132348         0.583810         2.481280
 H        -3.138245         1.785677         0.893552
 H        -3.064514        -0.311717        -0.652098
 H        -4.392192        -1.565498         1.630306
 H        -3.473564        -2.744919         0.814355
 H        -2.717812        -2.320923         3.509043
 H        -0.773960        -1.137635         3.851683
 H        -0.140031         0.730605         2.494425
 H         0.236825        -0.381279         1.296606
