19
Iteration:  1176
 O        -1.001423         1.041924        -0.303331
 C        -1.667358         0.397539         0.809057
 C        -3.041818         0.905308         1.335360
 C        -2.923232        -0.393836         0.625486
 C        -3.078119        -1.767654         1.168585
 C        -2.380281        -2.134615         2.484400
 O        -0.926459        -2.521060         2.552600
 C        -1.306939        -1.197850         2.931844
 C        -0.743261        -0.133025         1.926376
 H        -0.834674         1.965549        -0.012247
 H        -3.068436         0.689272         2.376767
 H        -3.567666         1.674960         0.724152
 H        -3.062058        -0.388725        -0.464328
 H        -4.157725        -1.966260         1.373669
 H        -2.844342        -2.283961         0.271437
 H        -2.997509        -2.562891         3.273321
 H        -1.282554        -0.893094         3.904025
 H        -0.455154         0.745335         2.538714
 H         0.214152        -0.337243         1.476756
