19
Iteration:  1084charge 0 multiplicity 1
 O        -1.095098         1.288535        -0.120967
 C        -1.591803         0.425968         0.875847
 C        -3.054483         0.769722         1.346813
 C        -2.849719        -0.524295         0.524609
 C        -3.072225        -1.896549         1.099196
 C        -2.416893        -2.037735         2.564712
 O        -1.059335        -2.543575         2.757276
 C        -1.326118        -1.088078         2.736689
 C        -0.556344        -0.227900         1.655386
 H        -0.647578         2.003022         0.401531
 H        -3.445662         0.902181         2.360895
 H        -3.364852         1.634026         0.699339
 H        -3.459295        -0.395557        -0.394082
 H        -4.146925        -2.027192         1.033884
 H        -2.693552        -2.661792         0.377975
 H        -2.954002        -2.096964         3.528134
 H        -1.243773        -0.718683         3.847285
 H         0.171641         0.416265         2.055639
 H         0.066028        -0.934072         1.102197
