19
Iteration:  3616
 O        -1.045536         1.069219        -0.265958
 C        -1.621526         0.376729         0.915110
 C        -2.979414         0.921305         1.489746
 C        -2.938011        -0.343478         0.616320
 C        -3.177359        -1.794259         1.086411
 C        -2.391552        -2.044072         2.476864
 O        -1.058573        -2.563101         2.436788
 C        -1.223017        -1.227867         2.873382
 C        -0.603493        -0.183584         1.881256
 H        -0.750085         1.952824         0.091148
 H        -3.099000         0.565870         2.555845
 H        -3.326878         1.915968         1.230919
 H        -3.169318        -0.056651        -0.417629
 H        -4.236788        -1.951186         1.316110
 H        -3.030659        -2.567658         0.280273
 H        -2.995559        -2.481282         3.276531
 H        -1.092986        -0.981956         3.918373
 H        -0.243035         0.780443         2.447672
 H         0.223370        -0.643793         1.317221
