19
Iteration:  1103
 O        -1.022618         1.195964        -0.108176
 C        -1.733448         0.376095         0.872287
 C        -3.050065         0.744521         1.389500
 C        -2.903153        -0.504364         0.464035
 C        -3.036580        -1.897233         1.107131
 C        -2.383752        -1.872029         2.449429
 O        -1.110851        -2.480051         2.680555
 C        -1.159893        -1.094123         2.835028
 C        -0.670044        -0.263443         1.727764
 H        -0.635430         1.937763         0.446194
 H        -3.054052         0.380659         2.361674
 H        -3.653970         1.580543         0.980915
 H        -3.071579        -0.285641        -0.617254
 H        -4.133197        -1.972207         1.274965
 H        -2.662657        -2.827713         0.572733
 H        -3.022169        -2.108053         3.324523
 H        -1.055174        -0.680322         3.924136
 H        -0.031316         0.556335         2.160950
 H         0.095209        -0.812806         1.099206
