19
Iteration:  2673
 O        -1.057503         1.040966        -0.196606
 C        -1.689013         0.378112         0.924099
 C        -2.865457         0.933407         1.557558
 C        -2.902859        -0.303559         0.613713
 C        -3.152645        -1.739814         1.191402
 C        -2.411151        -2.048583         2.428480
 O        -1.060412        -2.571545         2.348540
 C        -1.282967        -1.148536         2.838313
 C        -0.634895        -0.168666         1.869257
 H        -0.407501         0.469091        -0.620807
 H        -3.123794         0.580586         2.568925
 H        -3.301636         1.888311         1.212132
 H        -3.362116        -0.331722        -0.401998
 H        -4.219958        -1.878804         1.338402
 H        -2.749064        -2.459810         0.434333
 H        -3.102790        -2.572163         3.199888
 H        -1.102781        -0.999237         3.911455
 H        -0.248231         0.680195         2.462400
 H         0.171098        -0.615827         1.213887
