19
Iteration:  3542
 O        -1.080253         1.104607        -0.157426
 C        -1.618247         0.409344         1.004904
 C        -3.096157         0.958943         1.258714
 C        -2.831571        -0.402207         0.561062
 C        -3.140855        -1.646677         1.297700
 C        -2.384367        -1.967684         2.494124
 O        -1.066447        -2.686977         2.351999
 C        -1.131678        -1.332932         2.754123
 C        -0.650244        -0.199855         1.938143
 H        -0.867854         1.975580         0.176344
 H        -3.583895         0.997195         2.301004
 H        -3.584415         1.633331         0.538709
 H        -2.799704        -0.372366        -0.451926
 H        -4.209787        -1.470151         1.520980
 H        -3.303707        -2.658292         0.810560
 H        -2.849649        -2.354926         3.406474
 H        -0.820366        -1.238189         3.815218
 H        -0.262549         0.595309         2.502764
 H         0.268858        -0.530647         1.380714
