19
Iteration:  1616
 O        -0.956826         1.038251        -0.200569
 C        -1.660466         0.378261         0.895728
 C        -3.002809         0.924515         1.262924
 C        -2.918451        -0.403396         0.534132
 C        -3.233626        -1.691771         1.265985
 C        -2.360477        -2.061577         2.534782
 O        -0.958938        -2.565230         2.297462
 C        -1.236641        -1.193612         2.978987
 C        -0.737601        -0.135838         1.932147
 H        -0.419139         1.756575         0.269102
 H        -3.379409         0.681415         2.357230
 H        -3.506219         1.718316         0.779458
 H        -3.082404        -0.480868        -0.563761
 H        -4.309946        -1.778763         1.528338
 H        -3.206955        -2.590316         0.508346
 H        -2.922122        -2.735873         3.392791
 H        -1.022812        -1.056749         4.043481
 H        -0.483692         0.779208         2.585402
 H         0.192387        -0.567346         1.508021
