19
Iteration:  1971
 O        -1.078455         0.957754        -0.268931
 C        -1.612357         0.506960         0.934892
 C        -2.916068         0.981571         1.374460
 C        -2.908796        -0.373588         0.683558
 C        -3.310361        -1.675651         1.241333
 C        -2.360681        -2.084505         2.424715
 O        -1.047522        -2.645828         2.275199
 C        -1.104095        -1.261403         2.815088
 C        -0.683837        -0.046330         2.074616
 H        -0.484662         0.179482        -0.514325
 H        -3.030387         0.990042         2.448199
 H        -3.319374         1.956220         0.916585
 H        -3.214506        -0.135804        -0.395343
 H        -4.402985        -1.859877         1.417334
 H        -3.158231        -2.368308         0.364037
 H        -2.897091        -2.613152         3.219747
 H        -0.989956        -1.303331         3.917254
 H        -0.729561         0.732695         2.902765
 H         0.398005        -0.041535         1.855020
