19
Iteration:  3764
 O        -0.908395         1.162029        -0.254326
 C        -1.711781         0.402642         0.875868
 C        -3.073934         0.923602         1.375482
 C        -2.973074        -0.347096         0.583609
 C        -3.166290        -1.704485         1.249226
 C        -2.385091        -1.965370         2.525277
 O        -1.083565        -2.696867         2.426931
 C        -1.075827        -1.359218         2.803331
 C        -0.695714        -0.209855         1.968361
 H        -1.273059         2.049298        -0.159301
 H        -3.083866         0.798901         2.433172
 H        -3.495866         1.784505         0.952113
 H        -3.128156        -0.239546        -0.562240
 H        -4.167231        -2.132379         1.137589
 H        -2.542498        -2.310675         0.591541
 H        -2.993977        -2.353804         3.321886
 H        -0.799106        -1.118529         3.837505
 H        -0.468919         0.669946         2.643620
 H         0.207284        -0.387410         1.291142
