19
Iteration:   980
 O        -1.114381         1.208054        -0.317900
 C        -1.639822         0.325129         0.852025
 C        -3.073720         0.827892         1.357508
 C        -2.838783        -0.381102         0.441169
 C        -3.053504        -1.765724         1.142024
 C        -2.382672        -2.068241         2.582328
 O        -0.939102        -2.548208         2.577387
 C        -1.345135        -1.207168         3.000778
 C        -0.693254        -0.179370         1.881921
 H        -0.456583         1.799775         0.146369
 H        -3.379427         0.665484         2.406708
 H        -3.329241         1.761023         0.815089
 H        -3.025592        -0.415319        -0.634294
 H        -4.173949        -1.737658         1.313078
 H        -2.787869        -2.454107         0.341909
 H        -2.888129        -2.547621         3.412116
 H        -1.335241        -0.872700         3.985248
 H        -0.064981         0.611117         2.336282
 H         0.018913        -0.890179         1.455857
