19
Iteration:  1721charge 0 multiplicity 1
 O        -0.983563         1.268728        -0.019320
 C        -1.605645         0.381305         0.914879
 C        -3.013024         0.836021         1.329038
 C        -2.881787        -0.449929         0.574471
 C        -3.206130        -1.804857         1.224560
 C        -2.407662        -1.957869         2.515836
 O        -1.106852        -2.574815         2.456953
 C        -1.212076        -1.150947         2.820167
 C        -0.649204        -0.232299         1.717917
 H        -0.273413         0.688423        -0.451900
 H        -3.524631         0.787515         2.351815
 H        -3.499743         1.489656         0.684190
 H        -3.290786        -0.351040        -0.446910
 H        -4.264178        -2.006608         1.460676
 H        -2.796504        -2.502582         0.557168
 H        -3.102236        -2.231963         3.248749
 H        -0.748713        -1.031340         3.808431
 H        -0.098224         0.608702         2.153901
 H         0.150543        -0.905954         1.301588
