19
Iteration:  4511charge 0 multiplicity 1
 O        -1.141898         1.034888        -0.214168
 C        -1.582158         0.409224         0.993664
 C        -2.952700         0.834268         1.435452
 C        -2.803661        -0.393084         0.484209
 C        -3.204816        -1.721396         1.204472
 C        -2.425503        -1.984162         2.455882
 O        -1.111172        -2.562739         2.362318
 C        -1.191350        -1.282869         2.855682
 C        -0.576872        -0.103539         1.899939
 H        -1.305849         2.005650        -0.016560
 H        -3.040147         0.667498         2.548873
 H        -3.216962         1.805775         1.086940
 H        -3.004201        -0.206833        -0.578779
 H        -4.275679        -1.856563         1.442300
 H        -2.908434        -2.549879         0.505112
 H        -3.021244        -2.325236         3.392694
 H        -1.003624        -1.256981         3.940918
 H        -0.314660         0.745917         2.615813
 H         0.383195        -0.597078         1.555793
