19
Iteration:  1895
 O        -1.029352         1.163431        -0.168284
 C        -1.624518         0.378355         0.913828
 C        -2.944372         0.804699         1.359096
 C        -2.837505        -0.479725         0.537199
 C        -3.277282        -1.658038         1.332254
 C        -2.427387        -1.953983         2.521561
 O        -1.147260        -2.613903         2.354974
 C        -1.109736        -1.256704         2.756039
 C        -0.577857        -0.166087         1.875620
 H        -0.727211         1.932963         0.312964
 H        -3.394729         0.614845         2.353751
 H        -3.498484         1.669880         0.844303
 H        -3.107836        -0.448861        -0.584015
 H        -4.368307        -1.721266         1.575960
 H        -3.286559        -2.539675         0.697458
 H        -3.007650        -2.265160         3.387339
 H        -0.948184        -1.313024         3.861515
 H        -0.222560         0.659805         2.464183
 H         0.374275        -0.313963         1.369481
