19
Iteration:   300charge 0 multiplicity 1
 O        -1.037034         1.052222        -0.176924
 C        -1.683711         0.372969         0.842802
 C        -3.165506         0.665968         1.302584
 C        -2.765025        -0.489575         0.489568
 C        -2.886402        -1.826906         1.086254
 C        -2.446784        -1.856329         2.599034
 O        -1.167037        -2.467398         2.638992
 C        -1.151364        -1.104029         2.891314
 C        -0.684662        -0.111897         1.821302
 H        -0.900641         1.970919         0.239263
 H        -3.536530         0.382117         2.402192
 H        -3.744466         1.458571         0.876597
 H        -3.138355        -0.464607        -0.655750
 H        -4.019607        -2.002266         1.017636
 H        -2.270498        -2.563841         0.510981
 H        -3.169473        -2.078086         3.370501
 H        -0.905968        -0.948433         3.952476
 H        -0.213258         0.725205         2.292726
 H        -0.033750        -0.546027         1.035970
