19
Iteration:  2720charge 0 multiplicity 1
 O        -1.116829         1.245959        -0.009245
 C        -1.621548         0.366943         0.932455
 C        -2.953005         0.845473         1.284072
 C        -2.823122        -0.400272         0.495580
 C        -3.211245        -1.696648         1.301994
 C        -2.405253        -1.957900         2.599606
 O        -1.190782        -2.675169         2.348739
 C        -1.129198        -1.238906         2.728475
 C        -0.595720        -0.192841         1.825481
 H        -0.596762         0.915878        -0.728049
 H        -3.143120         0.790070         2.418737
 H        -3.170245         1.790853         0.786968
 H        -2.990176        -0.573160        -0.601630
 H        -4.244239        -1.649488         1.729392
 H        -3.068613        -2.666972         0.666518
 H        -2.866867        -2.207362         3.533071
 H        -0.746352        -1.177207         3.808580
 H        -0.277168         0.654354         2.432482
 H         0.285885        -0.622086         1.335835
