19
Iteration:  1238
 O        -1.054481         1.039500        -0.280179
 C        -1.670095         0.495612         0.947526
 C        -3.068555         0.776279         1.160075
 C        -2.747087        -0.518930         0.520474
 C        -3.162622        -1.745555         1.330942
 C        -2.405448        -1.988736         2.613188
 O        -1.069207        -2.568751         2.214847
 C        -1.136994        -1.283002         2.929904
 C        -0.696816         0.052414         2.115098
 H        -0.516234         1.814307        -0.001146
 H        -3.676564         0.801578         2.093387
 H        -3.591388         1.566638         0.557414
 H        -2.766867        -0.636940        -0.556719
 H        -4.225508        -1.479214         1.439787
 H        -3.033325        -2.771382         0.829208
 H        -2.969713        -2.446570         3.432941
 H        -0.864750        -1.342838         4.073093
 H        -0.620635         0.869273         2.849477
 H         0.297700        -0.273557         1.733586
