19
Iteration:   268charge 0 multiplicity 1
 O        -1.114839         1.256813        -0.129398
 C        -1.643464         0.300936         0.857170
 C        -3.045632         0.753741         1.155260
 C        -2.906298        -0.589299         0.480232
 C        -3.082572        -1.917918         1.119247
 C        -2.368524        -1.889433         2.533256
 O        -1.038986        -2.470971         2.672862
 C        -1.182488        -1.108747         2.935442
 C        -0.661757        -0.140151         1.874790
 H        -0.244633         1.541548         0.119919
 H        -3.604653         0.767252         2.150163
 H        -3.309654         1.556075         0.525283
 H        -3.216618        -0.467260        -0.654382
 H        -4.185298        -2.080242         1.207191
 H        -2.648305        -2.723421         0.454103
 H        -3.043091        -2.121158         3.335784
 H        -1.125929        -0.885188         4.008433
 H        -0.150495         0.646059         2.357789
 H         0.076950        -0.618305         1.169298
