19
Iteration:  4291
 O        -1.121438         1.196941        -0.271190
 C        -1.630993         0.448423         0.827024
 C        -2.934684         0.852126         1.420052
 C        -2.844927        -0.433058         0.593371
 C        -3.197941        -1.801028         1.240551
 C        -2.427960        -2.016324         2.513045
 O        -1.187624        -2.666140         2.421408
 C        -1.089424        -1.345631         2.825336
 C        -0.592424        -0.018387         1.917768
 H        -0.391179         1.714884         0.073090
 H        -3.153088         0.634219         2.499351
 H        -3.327354         1.780961         1.034126
 H        -3.177390        -0.317230        -0.472940
 H        -4.246248        -1.907764         1.362269
 H        -2.764545        -2.502645         0.466745
 H        -3.050758        -2.197841         3.431141
 H        -0.905013        -1.413854         3.849789
 H        -0.448608         0.794928         2.607384
 H         0.422428        -0.222615         1.515820
