19
Iteration:  2550charge 0 multiplicity 1
 O        -1.047221         1.157623        -0.167426
 C        -1.650455         0.415415         0.931527
 C        -3.015765         0.896744         1.286217
 C        -2.864549        -0.411626         0.573735
 C        -3.254599        -1.698661         1.328704
 C        -2.370717        -2.019523         2.593411
 O        -1.066482        -2.569566         2.187844
 C        -1.142484        -1.298906         2.861646
 C        -0.639715        -0.155919         1.948193
 H        -0.162181         0.825333        -0.248743
 H        -3.307132         0.883480         2.384278
 H        -3.321814         1.755962         0.734646
 H        -3.183925        -0.375038        -0.464116
 H        -4.259897        -1.455116         1.704702
 H        -3.417837        -2.585378         0.672534
 H        -3.050201        -2.577815         3.361548
 H        -0.743535        -1.381413         3.842752
 H        -0.298731         0.622399         2.693503
 H         0.223226        -0.751579         1.526202
