19
Iteration:  4517
 O        -1.104263         1.060051        -0.201314
 C        -1.573700         0.412425         0.925988
 C        -2.923247         0.787748         1.408694
 C        -2.841871        -0.397036         0.529686
 C        -3.267337        -1.737841         1.202662
 C        -2.423437        -1.989521         2.494921
 O        -1.095853        -2.563685         2.326303
 C        -1.184244        -1.203156         2.846954
 C        -0.572453        -0.153086         1.969507
 H        -1.239670         2.011895        -0.013503
 H        -3.167467         0.569169         2.435835
 H        -3.270391         1.828773         1.204935
 H        -3.062336        -0.239081        -0.515865
 H        -4.362383        -1.934969         1.322979
 H        -2.946557        -2.492918         0.490747
 H        -2.899686        -2.335219         3.359717
 H        -1.058221        -1.085721         3.929882
 H        -0.272644         0.632848         2.639386
 H         0.317804        -0.443279         1.421390
