19
Iteration:  3515
 O        -0.911359         1.057329        -0.178989
 C        -1.618436         0.407462         0.898267
 C        -2.947110         0.888555         1.352435
 C        -3.018554        -0.405155         0.590264
 C        -3.240138        -1.715244         1.297097
 C        -2.377781        -2.096220         2.447603
 O        -1.067507        -2.591351         2.259401
 C        -1.145844        -1.294596         2.941073
 C        -0.731638        -0.043928         1.940596
 H        -1.130622         1.982763        -0.246122
 H        -3.119052         0.914122         2.388665
 H        -3.221420         1.857884         0.930124
 H        -3.097297        -0.372517        -0.562549
 H        -4.279056        -1.733826         1.599681
 H        -3.264930        -2.573168         0.639026
 H        -2.837710        -2.588011         3.305799
 H        -0.834481        -1.408892         3.975832
 H        -0.419235         0.975767         2.369059
 H         0.224223        -0.314594         1.523973
