19
Iteration:  4328charge 0 multiplicity 1
 O        -1.083933         1.097922        -0.152926
 C        -1.648235         0.371911         0.924387
 C        -3.012351         0.863537         1.443154
 C        -2.885635        -0.314536         0.607494
 C        -3.167849        -1.750519         1.151172
 C        -2.440940        -2.017449         2.439477
 O        -1.010823        -2.478258         2.445141
 C        -1.191472        -1.235425         2.888628
 C        -0.599866        -0.281932         1.774730
 H        -0.442683         1.657856         0.266862
 H        -3.318797         0.657742         2.455391
 H        -3.309286         1.846543         1.011052
 H        -3.241969        -0.366332        -0.388096
 H        -4.273094        -1.941760         1.326302
 H        -2.998383        -2.495092         0.320253
 H        -3.030967        -2.565506         3.218910
 H        -1.121128        -0.740571         3.944626
 H         0.115233         0.420951         2.199082
 H        -0.105616        -0.919171         1.046615
