19
Iteration:  2152charge 0 multiplicity 1
 O        -0.922409         0.729522        -0.145321
 C        -1.647560         0.392061         0.986982
 C        -2.928086         1.066188         1.258963
 C        -2.912009        -0.345133         0.729670
 C        -3.378615        -1.667310         1.450546
 C        -2.259242        -2.168815         2.396953
 O        -0.997591        -2.462070         1.927375
 C        -1.177803        -1.255210         2.806856
 C        -0.757896         0.024071         2.194222
 H        -1.474089         0.508350        -0.884395
 H        -3.239783         1.187847         2.281383
 H        -3.179356         1.989265         0.627972
 H        -2.984249        -0.360926        -0.409363
 H        -4.283031        -1.356076         2.082860
 H        -3.700357        -2.462683         0.734339
 H        -2.729111        -2.913896         3.142929
 H        -0.809477        -1.381729         3.827855
 H        -1.054071         0.745898         2.948038
 H         0.321604         0.300637         2.055464
