19
Iteration:   541charge 0 multiplicity 1
 O        -1.001918         1.032354        -0.182177
 C        -1.693469         0.371163         0.821894
 C        -3.049277         0.888113         1.110901
 C        -2.840409        -0.533857         0.460466
 C        -3.138742        -1.774105         1.347294
 C        -2.275084        -2.108410         2.490755
 O        -0.877020        -2.471496         2.359893
 C        -1.249974        -1.182637         2.950720
 C        -0.923815         0.093325         2.140692
 H        -0.357127         0.341612        -0.489333
 H        -3.284154         0.961332         2.200093
 H        -3.602225         1.537975         0.517055
 H        -3.197105        -0.669012        -0.584132
 H        -4.136372        -1.525476         1.709936
 H        -3.393657        -2.574312         0.680763
 H        -2.680341        -2.650029         3.276390
 H        -0.998134        -1.160960         4.017710
 H        -0.980311         0.999421         2.859785
 H         0.151233        -0.178600         1.913912
