19
Iteration:  2027charge 0 multiplicity 1
 O        -0.878629         0.933796        -0.133131
 C        -1.631487         0.421072         0.955694
 C        -3.046772         0.951962         1.247734
 C        -2.886890        -0.451759         0.634873
 C        -3.389943        -1.690789         1.464018
 C        -2.377513        -2.095147         2.554938
 O        -1.048176        -2.481836         2.054188
 C        -1.142750        -1.297023         2.734865
 C        -0.633602        -0.053235         2.018484
 H        -0.592086         1.670847         0.461327
 H        -3.692921         0.998499         2.228287
 H        -3.373183         1.770604         0.595756
 H        -3.099404        -0.538344        -0.439429
 H        -4.318561        -1.336880         2.020938
 H        -3.556392        -2.449392         0.708462
 H        -2.825743        -2.589222         3.346538
 H        -0.956644        -1.411142         3.845366
 H        -0.222730         0.818237         2.579230
 H         0.182692        -0.497920         1.399262
