19
Iteration:  2992
 O        -0.917053         0.864316        -0.264099
 C        -1.732834         0.408654         0.972605
 C        -3.023909         1.109143         1.263690
 C        -2.956720        -0.256233         0.665848
 C        -3.252362        -1.639655         1.414184
 C        -2.269919        -2.198966         2.398260
 O        -0.958960        -2.507616         2.065250
 C        -1.190228        -1.409701         2.866095
 C        -0.764631        -0.021035         2.248068
 H        -1.045901         0.092787        -0.842826
 H        -3.183347         1.263107         2.385950
 H        -3.231803         1.853835         0.542869
 H        -3.277982        -0.418017        -0.324288
 H        -4.322667        -1.496000         1.846883
 H        -3.307879        -2.370875         0.635618
 H        -2.652428        -2.773216         3.161545
 H        -0.680757        -1.398108         3.826800
 H        -0.896774         0.829196         2.905767
 H         0.311232        -0.103426         1.911322
