19
Iteration:  1285
 O        -0.791074         0.940087        -0.081238
 C        -1.740540         0.381685         0.896801
 C        -3.119969         0.908515         1.007771
 C        -2.946265        -0.511303         0.564445
 C        -3.350329        -1.750245         1.435296
 C        -2.261478        -2.078718         2.437662
 O        -0.897738        -2.498915         2.218329
 C        -1.138180        -1.201096         2.902447
 C        -0.810306         0.025794         2.139928
 H        -1.112827         1.824454        -0.210688
 H        -3.424130         1.143195         2.040094
 H        -3.579106         1.732667         0.434453
 H        -3.033195        -0.637510        -0.546951
 H        -4.329042        -1.474295         1.988869
 H        -3.460578        -2.549531         0.665740
 H        -2.799716        -2.769281         3.193223
 H        -0.856693        -1.111868         3.924441
 H        -0.685619         0.815908         2.828811
 H         0.123830        -0.242689         1.694653
