19
Iteration:   806
 O        -0.864795         0.773701        -0.196870
 C        -1.650348         0.452959         0.955903
 C        -3.112634         0.800141         1.049962
 C        -2.826093        -0.576493         0.671513
 C        -3.238146        -1.718855         1.496213
 C        -2.340868        -2.053764         2.520792
 O        -1.019696        -2.398738         1.935329
 C        -1.171551        -1.200386         2.790355
 C        -0.875689         0.244744         2.314834
 H         0.029573         0.990308         0.083403
 H        -3.446896         0.885744         2.137363
 H        -3.552878         1.579839         0.426729
 H        -2.791330        -0.774055        -0.401192
 H        -4.214682        -1.464937         1.921197
 H        -3.435734        -2.583009         0.858952
 H        -2.742351        -2.867774         3.108181
 H        -0.649432        -1.302084         3.887855
 H        -1.300835         0.939481         3.060371
 H         0.245474         0.308492         2.309599
