19
Iteration:   568
 O        -0.981819         0.952618        -0.137311
 C        -1.695305         0.296012         0.954130
 C        -3.074279         0.847376         1.066375
 C        -2.854309        -0.609793         0.486024
 C        -3.318384        -1.765121         1.406381
 C        -2.315990        -2.038776         2.473509
 O        -0.851256        -2.294358         2.193784
 C        -1.220849        -1.153336         2.964079
 C        -0.789365         0.046052         2.127885
 H        -0.089582         0.986934         0.251918
 H        -3.690967         0.944446         1.949490
 H        -3.359960         1.530261         0.188354
 H        -2.947080        -0.794930        -0.584495
 H        -4.405666        -1.624263         1.660215
 H        -3.345986        -2.643693         0.680215
 H        -2.542950        -2.849277         3.252223
 H        -1.019286        -1.165930         4.082378
 H        -0.913152         0.920311         2.776331
 H         0.272737        -0.204873         1.915190
