19
Iteration:   701charge 0 multiplicity 1
 O        -0.824921         0.812202        -0.062349
 C        -1.713807         0.309697         1.021821
 C        -3.037343         0.840821         0.967030
 C        -2.886248        -0.632951         0.585923
 C        -3.345572        -1.755137         1.433113
 C        -2.328360        -1.988442         2.534963
 O        -0.937233        -2.241854         1.942397
 C        -1.038414        -1.251662         2.859869
 C        -0.922532         0.204971         2.335384
 H        -1.156148         0.405356        -0.862876
 H        -3.439579         1.163581         1.925396
 H        -3.238209         1.502264         0.165640
 H        -2.768863        -0.885463        -0.500590
 H        -4.379930        -1.547762         1.892165
 H        -3.526789        -2.620965         0.730447
 H        -2.724793        -2.707287         3.315483
 H        -0.526682        -1.474142         3.746271
 H        -1.453098         0.830770         3.087345
 H         0.091664         0.578301         2.378172
