19
Iteration:  2357
 O        -0.850560         0.752814        -0.108046
 C        -1.655860         0.342240         0.986488
 C        -2.988485         0.917905         1.199611
 C        -2.940442        -0.428284         0.641998
 C        -3.393910        -1.574182         1.521784
 C        -2.320717        -2.096443         2.493934
 O        -1.001218        -2.350788         1.856545
 C        -1.112493        -1.316584         2.816492
 C        -0.782831        -0.037523         2.175882
 H        -0.954044         1.704852        -0.120260
 H        -3.448627         1.089244         2.249728
 H        -3.076321         1.775237         0.531183
 H        -3.081272        -0.436723        -0.440774
 H        -4.279083        -1.292705         2.114538
 H        -3.786948        -2.372123         0.909255
 H        -2.631989        -2.814429         3.181212
 H        -0.625744        -1.439864         3.834848
 H        -0.971671         0.877287         2.823840
 H         0.231976        -0.125587         1.713174
