19
Iteration:   279charge 0 multiplicity 1
 O        -1.081835         1.186750        -0.119432
 C        -1.719865         0.339326         0.867019
 C        -3.095658         0.698569         1.227506
 C        -2.910090        -0.540996         0.388301
 C        -3.022314        -1.887601         1.191963
 C        -2.392426        -1.821732         2.550797
 O        -1.091202        -2.497368         2.587745
 C        -1.193389        -1.045259         2.890357
 C        -0.613442        -0.183443         1.862212
 H        -0.389759         1.556099         0.440870
 H        -3.573182         0.749690         2.264635
 H        -3.315379         1.546165         0.638529
 H        -2.946852        -0.684826        -0.796229
 H        -3.970478        -2.486810         1.252497
 H        -2.261000        -2.538191         0.684268
 H        -3.014978        -1.959805         3.410778
 H        -1.005712        -0.768719         3.933278
 H        -0.272639         0.704575         2.313410
 H         0.275839        -0.755950         1.453268
