19
Iteration:  4240charge 0 multiplicity 1
 O        -0.974873         0.962414        -0.098824
 C        -1.664839         0.407663         0.930409
 C        -3.067701         0.931113         1.311180
 C        -2.935699        -0.336326         0.565293
 C        -3.322212        -1.737252         1.252528
 C        -2.346222        -2.037313         2.532195
 O        -0.957467        -2.516228         2.270219
 C        -1.160869        -1.203021         2.855985
 C        -0.604385        -0.205203         1.933659
 H        -1.269765         1.861872        -0.033833
 H        -3.449490         0.946049         2.304416
 H        -3.398931         1.773641         0.680305
 H        -3.123106        -0.169075        -0.478250
 H        -4.342081        -1.569008         1.669374
 H        -3.296286        -2.530980         0.484611
 H        -2.809038        -2.850615         3.093078
 H        -0.857888        -1.221283         3.921081
 H        -0.088778         0.581885         2.522794
 H         0.184497        -0.707589         1.341508
