19
Iteration:   518
 O        -0.939675         1.019096        -0.218162
 C        -1.662566         0.419396         0.915417
 C        -3.196399         0.854667         1.101328
 C        -2.809967        -0.474081         0.626530
 C        -3.140504        -1.883101         1.261831
 C        -2.363774        -2.079002         2.551636
 O        -0.962903        -2.484166         2.401772
 C        -1.164593        -1.194575         2.857390
 C        -0.802066         0.127051         2.094180
 H        -1.101454         0.489871        -1.005735
 H        -3.580448         0.998797         2.110228
 H        -3.436177         1.704301         0.465286
 H        -2.913395        -0.606742        -0.513505
 H        -4.213150        -1.954767         1.314147
 H        -2.913173        -2.611897         0.515681
 H        -2.832850        -2.516181         3.411086
 H        -0.818533        -1.118383         3.866220
 H        -0.932146         0.843163         2.968222
 H         0.270143         0.065605         1.857072
