19
Iteration:  4416
 O        -1.177698         1.149860        -0.158574
 C        -1.531310         0.384162         0.926972
 C        -3.013422         0.794338         1.510778
 C        -2.783501        -0.366941         0.517467
 C        -3.191291        -1.737469         1.140031
 C        -2.467309        -2.013826         2.464565
 O        -1.111656        -2.558958         2.498956
 C        -1.152765        -1.167474         2.792437
 C        -0.550795        -0.297228         1.801188
 H        -0.616364         1.896246        -0.036889
 H        -3.314301         0.622204         2.607675
 H        -3.512384         1.582809         1.031301
 H        -3.212382        -0.028883        -0.462921
 H        -4.311053        -1.801934         1.191510
 H        -2.820617        -2.514791         0.443197
 H        -3.102565        -2.128148         3.379166
 H        -0.894903        -1.012231         3.940593
 H        -0.120030         0.580127         2.272093
 H         0.216862        -0.707246         1.171583
