19
Iteration:  2946
 O        -0.926251         1.006196        -0.092097
 C        -1.632440         0.350297         0.922511
 C        -3.029653         0.952395         1.250268
 C        -2.939283        -0.418938         0.593739
 C        -3.313658        -1.672138         1.440766
 C        -2.323140        -2.057486         2.548128
 O        -1.091504        -2.484842         1.970770
 C        -1.118794        -1.353671         2.833549
 C        -0.678038        -0.005686         2.115105
 H        -0.515223         0.249549        -0.615051
 H        -3.350590         1.018444         2.258105
 H        -3.137718         1.936098         0.663817
 H        -3.223269        -0.617439        -0.427905
 H        -4.265160        -1.531084         2.034005
 H        -3.499322        -2.506798         0.759314
 H        -2.828658        -2.778814         3.197505
 H        -0.703733        -1.248559         3.812052
 H        -0.723614         0.762431         2.891130
 H         0.354797        -0.065535         1.731898
