19
Iteration:  1959
 O        -0.996099         0.991241        -0.224287
 C        -1.675780         0.415967         0.894630
 C        -2.962695         1.090723         1.410844
 C        -2.887153        -0.326236         0.683975
 C        -3.195666        -1.745046         1.263629
 C        -2.375229        -2.098872         2.396038
 O        -1.066754        -2.624273         2.266064
 C        -1.198549        -1.342986         2.846598
 C        -0.641830        -0.012925         2.048100
 H        -0.974137         0.309754        -0.909296
 H        -3.148897         1.088205         2.452938
 H        -3.568808         1.710398         0.716288
 H        -3.252673        -0.337346        -0.412589
 H        -4.206419        -1.696326         1.736036
 H        -3.122534        -2.563039         0.478032
 H        -2.944725        -2.415657         3.299916
 H        -0.949338        -1.237735         3.925228
 H        -0.501786         0.851064         2.798520
 H         0.323668        -0.255019         1.540357
