19
Iteration:   946charge 0 multiplicity 1
 O        -1.015683         1.062813        -0.115443
 C        -1.725456         0.332595         0.919865
 C        -3.113811         0.858225         1.185921
 C        -2.792767        -0.527486         0.557745
 C        -3.101718        -1.792029         1.225591
 C        -2.340979        -1.937475         2.526885
 O        -1.102082        -2.627078         2.430161
 C        -1.124017        -1.162763         2.841691
 C        -0.658016         0.004056         1.922459
 H        -1.023537         1.990946         0.177816
 H        -3.529473         1.024969         2.186680
 H        -3.475525         1.707097         0.474459
 H        -2.834671        -0.499173        -0.564740
 H        -4.176463        -1.870029         1.603406
 H        -3.078747        -2.730526         0.638448
 H        -2.970209        -2.132219         3.417000
 H        -1.109548        -1.158930         3.869211
 H        -0.355824         0.876794         2.556142
 H         0.125047        -0.397426         1.267880
