19
Iteration:   720
 O        -0.868945         0.844024        -0.119943
 C        -1.623684         0.342429         0.939826
 C        -3.111109         0.915742         0.963475
 C        -2.784237        -0.487372         0.533440
 C        -3.238366        -1.696273         1.553943
 C        -2.191616        -2.087335         2.545967
 O        -1.003823        -2.442255         1.944260
 C        -1.089810        -1.234070         2.884019
 C        -1.083141         0.186352         2.337105
 H        -0.673435         0.169909        -0.758450
 H        -3.666003         1.061284         1.930642
 H        -3.391465         1.578624         0.194033
 H        -3.016416        -0.823371        -0.461499
 H        -4.250904        -1.455073         1.874082
 H        -3.340019        -2.618015         0.913879
 H        -2.573695        -2.762264         3.323773
 H        -0.674457        -1.238705         3.942685
 H        -1.556764         0.901703         3.129807
 H        -0.014595         0.578174         2.438698
