19
Iteration:  1201charge 0 multiplicity 1
 O        -0.973300         0.941999        -0.136899
 C        -1.748958         0.316080         0.905456
 C        -2.991463         0.891502         1.365242
 C        -2.941323        -0.514235         0.439537
 C        -3.149306        -1.809034         1.166845
 C        -2.338644        -1.959393         2.501391
 O        -0.984985        -2.463894         2.338758
 C        -1.222233        -1.098875         2.984268
 C        -0.730662        -0.056325         1.963473
 H        -0.652753         1.826647         0.209731
 H        -3.290496         0.665227         2.367475
 H        -3.371265         1.630503         0.704473
 H        -3.206756        -0.398221        -0.646098
 H        -4.202172        -1.975222         1.525091
 H        -2.957420        -2.609525         0.424713
 H        -2.917867        -2.556458         3.268700
 H        -1.059429        -0.963933         4.084433
 H        -0.299616         0.941773         2.384334
 H         0.164927        -0.357476         1.354491
