19
Iteration:  1199
 O        -0.970810         0.947766        -0.147681
 C        -1.741036         0.318365         0.897217
 C        -2.990996         0.889609         1.379429
 C        -2.944021        -0.497327         0.420309
 C        -3.153375        -1.808687         1.155466
 C        -2.327795        -1.961856         2.515886
 O        -0.974898        -2.462655         2.355683
 C        -1.235753        -1.106173         2.985338
 C        -0.736239        -0.067599         1.972151
 H        -0.671210         1.832345         0.176014
 H        -3.273757         0.694034         2.370588
 H        -3.370964         1.660238         0.692883
 H        -3.322449        -0.408891        -0.636180
 H        -4.164762        -1.969089         1.580377
 H        -2.905923        -2.595387         0.468467
 H        -2.914776        -2.600943         3.202419
 H        -1.066811        -0.994255         3.997502
 H        -0.328274         0.896838         2.364894
 H         0.105406        -0.382387         1.367838
