19
Iteration:  3248charge 0 multiplicity 1
 O        -0.775018         1.031163        -0.069278
 C        -1.585872         0.385785         0.967453
 C        -3.085649         0.909918         1.099857
 C        -2.862758        -0.539174         0.664677
 C        -3.388763        -1.599098         1.599141
 C        -2.368389        -2.057850         2.601917
 O        -1.049184        -2.516477         1.798539
 C        -1.119563        -1.325022         2.773868
 C        -0.831744        -0.014922         2.182796
 H        -1.173272         0.901755        -0.971224
 H        -3.383308         1.081153         2.208769
 H        -3.424436         1.646265         0.312128
 H        -2.853031        -0.769338        -0.409046
 H        -4.291875        -1.235819         2.121061
 H        -3.669436        -2.484491         1.013948
 H        -2.552465        -2.768430         3.398541
 H        -0.452200        -1.539738         3.715515
 H        -0.966731         0.757622         3.005312
 H         0.277295         0.153838         2.069372
