19
Iteration:  4409charge 0 multiplicity 1
 O        -1.230891         1.168271        -0.196351
 C        -1.574428         0.368879         0.923385
 C        -2.970097         0.799331         1.513515
 C        -2.785631        -0.378755         0.551121
 C        -3.098778        -1.737288         1.115459
 C        -2.464158        -1.962995         2.473383
 O        -1.167733        -2.626917         2.496634
 C        -1.183604        -1.194205         2.813620
 C        -0.539715        -0.230680         1.817756
 H        -0.800152         1.989635         0.072910
 H        -2.958783         0.819325         2.576326
 H        -3.405649         1.663801         0.938301
 H        -2.967878        -0.377364        -0.544629
 H        -4.198062        -1.762502         1.354731
 H        -2.845104        -2.533172         0.413507
 H        -3.185180        -2.136109         3.233265
 H        -0.716680        -1.027251         3.741534
 H        -0.036850         0.497942         2.529447
 H         0.279505        -0.678590         1.205428
