19
Iteration:  3664
 O        -1.069606         1.068959        -0.231880
 C        -1.707205         0.478178         0.909855
 C        -2.995209         1.043446         1.500693
 C        -2.945735        -0.386458         0.571995
 C        -3.101596        -1.808160         1.149475
 C        -2.399012        -2.071440         2.461263
 O        -1.132133        -2.635255         2.501965
 C        -1.130151        -1.272998         2.778746
 C        -0.623648        -0.170497         1.899904
 H        -0.560105         1.819012         0.096200
 H        -3.259118         1.029694         2.531767
 H        -3.203412         2.002747         0.941351
 H        -3.194571        -0.283279        -0.480760
 H        -3.970152        -2.427239         0.948853
 H        -2.431408        -2.344918         0.442733
 H        -3.120661        -2.370300         3.233471
 H        -0.725751        -1.111027         3.806607
 H        -0.245117         0.629764         2.539893
 H         0.159953        -0.540977         1.181065
