19
Iteration:   633charge 0 multiplicity 1
 O        -0.908070         0.840674        -0.118072
 C        -1.711172         0.329725         0.898933
 C        -2.987270         0.978074         0.968007
 C        -2.919859        -0.572553         0.560389
 C        -3.254195        -1.689060         1.430068
 C        -2.175693        -2.126020         2.481530
 O        -0.879046        -2.467031         2.156404
 C        -1.127700        -1.216357         2.897846
 C        -1.043920         0.118338         2.248091
 H        -1.258024         1.670899        -0.434900
 H        -3.561510         1.356784         1.826300
 H        -3.001987         1.690999         0.121745
 H        -2.746581        -0.805097        -0.492635
 H        -4.162916        -1.501355         2.089788
 H        -3.586991        -2.663719         0.926804
 H        -2.694550        -2.746600         3.267277
 H        -0.754043        -1.194123         3.958880
 H        -1.549600         0.809918         3.046100
 H        -0.035187         0.619065         2.073197
