19
Iteration:   827charge 0 multiplicity 1
 O        -0.888089         0.762092        -0.148972
 C        -1.717919         0.373010         0.971545
 C        -3.047784         0.987177         1.076910
 C        -2.865834        -0.499543         0.604884
 C        -3.339511        -1.828174         1.384147
 C        -2.308254        -2.052491         2.543921
 O        -0.970348        -2.453090         2.042363
 C        -1.017714        -1.202276         2.816312
 C        -0.932121         0.180085         2.235747
 H        -0.096489         1.187558         0.221992
 H        -3.517563         1.167276         2.104007
 H        -3.380762         1.669271         0.272769
 H        -3.081934        -0.541531        -0.465596
 H        -4.410874        -1.655077         1.590188
 H        -3.305346        -2.702338         0.733467
 H        -2.603408        -2.486173         3.504009
 H        -0.446335        -1.223193         3.874824
 H        -1.374145         0.767366         3.010889
 H         0.108744         0.463379         2.065964
