19
Iteration:  4873charge 0 multiplicity 1
 O        -1.085119         0.906236        -0.193090
 C        -1.590281         0.401835         0.969654
 C        -2.959830         0.923918         1.314742
 C        -2.742558        -0.477114         0.544164
 C        -3.326234        -1.598385         1.407526
 C        -2.321942        -2.163886         2.510711
 O        -0.992785        -2.436569         2.034977
 C        -1.224619        -1.251569         2.878739
 C        -0.720968        -0.059631         2.118045
 H        -1.053115         1.906714        -0.168486
 H        -3.411925         0.765788         2.205350
 H        -3.388930         1.766801         0.717770
 H        -2.887841        -0.516040        -0.575317
 H        -4.316409        -1.552623         2.049456
 H        -3.771298        -2.141578         0.525807
 H        -2.731015        -2.935158         3.281734
 H        -0.798139        -1.503173         3.812934
 H        -0.610000         0.774699         2.832298
 H         0.260514        -0.293105         1.736348
