19
Iteration:   177charge 0 multiplicity 1
 O        -0.885326         0.832845        -0.189959
 C        -1.751407         0.419182         0.879341
 C        -3.156444         0.801645         1.179869
 C        -2.859396        -0.528256         0.480402
 C        -3.057437        -1.847193         1.189491
 C        -2.393461        -1.951651         2.548058
 O        -0.966203        -2.446379         2.377132
 C        -1.152038        -1.122334         2.915129
 C        -0.834526         0.078577         2.128121
 H        -0.721299         1.807762        -0.151925
 H        -3.368980         0.786109         2.262140
 H        -3.779391         1.562758         0.557674
 H        -3.109089        -0.521702        -0.507159
 H        -4.182821        -2.047660         1.259760
 H        -2.515715        -2.593592         0.601183
 H        -2.940028        -2.369934         3.428843
 H        -1.021016        -0.988573         4.022965
 H        -1.024163         0.967826         2.747401
 H         0.153636         0.098699         1.758702
