19
Iteration:   660charge 0 multiplicity 1
 O        -0.715140         0.750901        -0.086014
 C        -1.720887         0.455375         0.897817
 C        -3.223001         0.905994         0.952597
 C        -2.931142        -0.523189         0.609977
 C        -3.298642        -1.674102         1.462425
 C        -2.247783        -2.202173         2.469592
 O        -0.786232        -2.314740         2.071062
 C        -1.211504        -1.242108         2.939828
 C        -0.974088         0.117519         2.276735
 H        -1.031435         1.240766        -0.864784
 H        -3.537744         1.282258         1.911428
 H        -3.590053         1.533570         0.113036
 H        -2.833327        -0.791970        -0.467973
 H        -4.094709        -1.334445         2.118014
 H        -3.707102        -2.529324         0.982726
 H        -2.568858        -3.018648         3.129802
 H        -0.885718        -1.252633         3.971983
 H        -1.028823         0.880544         2.988769
 H         0.005036         0.053538         1.866464
