19
Iteration:  3972
 O        -0.916068         0.750121        -0.126030
 C        -1.716413         0.399801         1.006619
 C        -3.035102         1.046742         1.219066
 C        -3.024978        -0.394437         0.653868
 C        -3.211077        -1.713804         1.328102
 C        -2.298226        -2.031181         2.503739
 O        -1.063586        -2.589217         1.986664
 C        -1.084247        -1.296753         2.824574
 C        -0.721063         0.124416         2.174968
 H        -0.582350         1.647606         0.088246
 H        -3.528253         1.102650         2.205855
 H        -3.238356         1.877037         0.571325
 H        -3.110103        -0.422849        -0.424064
 H        -4.204136        -1.763414         1.825446
 H        -3.307556        -2.532397         0.496860
 H        -2.680306        -2.573339         3.406958
 H        -0.671051        -1.537709         3.767609
 H        -0.790367         0.985520         2.899333
 H         0.283681         0.105149         1.671771
