19
Iteration:   584charge 0 multiplicity 1
 O        -0.951237         0.847068        -0.098627
 C        -1.706719         0.384639         1.004769
 C        -3.144921         0.793122         0.969895
 C        -2.753551        -0.601488         0.572578
 C        -3.229314        -1.809702         1.361363
 C        -2.331406        -1.997750         2.546623
 O        -0.953996        -2.345181         2.082714
 C        -1.187701        -1.163785         2.864647
 C        -0.854292         0.134862         2.227913
 H        -0.106652         1.255189         0.263254
 H        -3.445333         1.017229         2.016289
 H        -3.516594         1.522171         0.327015
 H        -2.839753        -0.680777        -0.530845
 H        -4.134488        -1.597759         1.890220
 H        -3.404438        -2.730972         0.878498
 H        -2.797852        -2.527792         3.359103
 H        -0.764681        -1.102442         3.846636
 H        -0.620825         1.059320         2.821605
 H         0.012271        -0.032989         1.622022
