19
Iteration:  4886
 O        -1.039425         0.943928        -0.202627
 C        -1.610657         0.317081         0.971330
 C        -2.930194         0.899448         1.289748
 C        -2.862111        -0.423299         0.593191
 C        -3.309577        -1.669529         1.387265
 C        -2.333738        -2.115683         2.420864
 O        -1.014320        -2.497800         2.081239
 C        -1.161706        -1.278057         2.805522
 C        -0.746625         0.023298         2.162048
 H        -1.171046         1.885576        -0.055674
 H        -3.153422         0.857815         2.334592
 H        -3.203502         1.864199         0.817882
 H        -2.930062        -0.503223        -0.546630
 H        -4.223096        -1.171031         1.962466
 H        -3.570105        -2.646606         0.902463
 H        -2.769931        -2.746176         3.235815
 H        -0.806623        -1.244243         3.806591
 H        -0.692512         0.828207         2.904939
 H         0.241073        -0.217470         1.826336
