19
Iteration:   867
 O        -0.915604         0.785120        -0.210644
 C        -1.698349         0.430571         0.927851
 C        -3.142570         1.048128         1.088381
 C        -2.861284        -0.474342         0.595946
 C        -3.321259        -1.704939         1.313176
 C        -2.239272        -2.152329         2.466112
 O        -0.851295        -2.471908         2.189612
 C        -1.208386        -1.210517         3.007463
 C        -0.831864         0.033668         2.193713
 H        -0.974584         1.755661        -0.291796
 H        -3.567365         1.174227         2.125293
 H        -3.455008         1.737213         0.345824
 H        -2.972995        -0.529913        -0.483657
 H        -4.135379        -1.476799         2.043609
 H        -3.612400        -2.549290         0.678009
 H        -2.646151        -2.999124         3.080326
 H        -0.841271        -1.350787         3.920127
 H        -0.620821         0.935475         2.839163
 H         0.144806        -0.265342         1.783671
