19
Iteration:  4000
 O        -0.991344         0.852700        -0.238095
 C        -1.693074         0.445685         0.985463
 C        -3.056039         0.984306         1.233765
 C        -2.855788        -0.410884         0.662684
 C        -3.324520        -1.555594         1.390320
 C        -2.351554        -2.128335         2.487129
 O        -0.866243        -2.497320         2.041834
 C        -1.135144        -1.422069         2.875599
 C        -0.831608        -0.027459         2.134305
 H        -0.150523         1.201100         0.032742
 H        -3.423517         1.031673         2.240899
 H        -3.315482         1.729991         0.424408
 H        -2.829477        -0.353540        -0.491112
 H        -4.184462        -1.167275         2.012605
 H        -3.689162        -2.177069         0.654652
 H        -2.642453        -2.800650         3.254082
 H        -0.895159        -1.503114         3.984830
 H        -0.940744         0.776201         2.860918
 H         0.170889         0.032637         1.743350
