19
Iteration:  2259
 O        -0.982772         0.892717        -0.138289
 C        -1.631728         0.404610         0.945853
 C        -2.972361         1.063265         1.158874
 C        -2.821718        -0.429303         0.676000
 C        -3.364840        -1.554257         1.595316
 C        -2.321141        -2.166287         2.500519
 O        -1.051111        -2.483207         1.813266
 C        -1.114347        -1.363628         2.854448
 C        -0.806829        -0.021014         2.194576
 H        -0.136939         0.461074        -0.127008
 H        -3.353272         1.145912         2.166102
 H        -3.261043         1.669606         0.276691
 H        -3.002156        -0.495664        -0.423595
 H        -4.254292        -1.196200         2.128798
 H        -3.707372        -2.399143         1.047962
 H        -2.620686        -2.780279         3.278173
 H        -0.597708        -1.704553         3.771619
 H        -0.963038         0.802672         2.941125
 H         0.235708        -0.161515         1.838671
