19
Iteration:   502charge 0 multiplicity 1
 O        -0.981099         0.958057        -0.125896
 C        -1.719684         0.403187         0.913753
 C        -3.109500         0.891245         1.123011
 C        -2.894788        -0.569733         0.457553
 C        -3.022744        -1.826112         1.232747
 C        -2.317943        -1.979930         2.587897
 O        -1.049096        -2.536550         2.301390
 C        -1.158984        -1.084809         2.953346
 C        -0.736979         0.117498         2.152339
 H        -1.458377         0.786303        -0.971464
 H        -3.485284         0.816578         2.154687
 H        -3.618798         1.511261         0.376177
 H        -3.139204        -0.544551        -0.578053
 H        -4.067143        -2.144060         1.477761
 H        -2.506392        -2.679569         0.708435
 H        -2.967107        -2.503806         3.386823
 H        -0.951913        -1.241870         4.043491
 H        -0.600655         1.014751         2.726031
 H         0.213479        -0.077589         1.646667
