19
Iteration:  3186
 O        -0.973654         0.801760        -0.190341
 C        -1.714965         0.434075         1.058204
 C        -3.015377         1.079197         1.234174
 C        -2.897770        -0.362701         0.644127
 C        -3.387859        -1.609779         1.379769
 C        -2.257029        -2.221651         2.460570
 O        -0.984163        -2.462864         1.949861
 C        -1.120390        -1.311276         2.891052
 C        -0.748751         0.031214         2.198556
 H        -0.312838         0.064279        -0.295212
 H        -3.200896         1.204669         2.320290
 H        -3.200569         1.808341         0.412019
 H        -2.834830        -0.356559        -0.442825
 H        -4.280706        -1.347441         1.957727
 H        -3.740387        -2.437718         0.645472
 H        -2.882135        -2.930583         3.041592
 H        -0.548011        -1.470109         3.809163
 H        -0.813764         0.773007         3.004053
 H         0.246840        -0.104549         1.808934
