19
Iteration:  4655charge 0 multiplicity 1
 O        -0.881134         0.919430        -0.063617
 C        -1.731575         0.389572         0.905686
 C        -3.006186         0.874207         1.336190
 C        -2.932261        -0.457343         0.580358
 C        -3.307020        -1.672376         1.357464
 C        -2.305457        -2.091981         2.406336
 O        -0.977759        -2.495003         2.127978
 C        -1.241177        -1.131569         2.892957
 C        -0.685007        -0.088859         1.964523
 H        -0.856317         1.900339         0.048519
 H        -3.218744         0.841286         2.373179
 H        -3.320066         1.706964         0.691028
 H        -3.296107        -0.379881        -0.425100
 H        -4.254394        -1.683460         1.963367
 H        -3.526632        -2.470863         0.579148
 H        -2.831826        -2.780199         3.162768
 H        -0.779835        -1.112174         3.878837
 H        -0.556757         0.879719         2.574865
 H         0.296063        -0.465166         1.615517
