19
Iteration:  4531
 O        -0.934713         1.162993        -0.180289
 C        -1.617271         0.272775         0.862026
 C        -2.951461         0.838789         1.435294
 C        -2.966415        -0.480192         0.623091
 C        -3.223987        -1.791759         1.216914
 C        -2.412220        -1.975695         2.495557
 O        -1.102337        -2.520867         2.278827
 C        -1.228658        -1.178906         2.838918
 C        -0.589576        -0.099111         1.939155
 H        -0.893901         2.091143         0.078006
 H        -3.095638         0.600263         2.538449
 H        -3.566217         1.486795         0.886250
 H        -3.358207        -0.432420        -0.383666
 H        -4.320693        -1.625763         1.508714
 H        -3.103152        -2.682753         0.560074
 H        -2.971796        -2.535590         3.265908
 H        -0.874849        -1.135673         3.821738
 H        -0.184463         0.778391         2.499429
 H         0.241507        -0.754226         1.532683
