19
Iteration:  1635
 O        -0.939581         0.937165        -0.153623
 C        -1.676090         0.356992         0.897513
 C        -3.050359         0.902092         1.361649
 C        -2.887858        -0.413663         0.600521
 C        -3.104554        -1.789423         1.229049
 C        -2.446563        -2.036958         2.478575
 O        -1.107670        -2.466240         2.314154
 C        -1.179603        -1.183517         2.801810
 C        -0.688734        -0.085529         2.011421
 H        -0.931181         1.925239        -0.115626
 H        -3.103061         1.055710         2.454836
 H        -3.275657         1.748860         0.729510
 H        -3.305139        -0.245034        -0.387211
 H        -4.149596        -2.087551         1.433805
 H        -2.834903        -2.562227         0.486595
 H        -2.848076        -2.510993         3.290845
 H        -0.922764        -1.073360         3.851294
 H        -0.275438         0.829558         2.455718
 H         0.206700        -0.527839         1.486230
