19
Iteration:  4611
 O        -1.063156         0.974122        -0.232310
 C        -1.643299         0.353795         0.969164
 C        -3.005107         0.944491         1.343499
 C        -2.815814        -0.431954         0.584152
 C        -3.147014        -1.704461         1.308345
 C        -2.410353        -2.021773         2.513456
 O        -1.093862        -2.610318         2.177318
 C        -1.140768        -1.331604         2.824023
 C        -0.707851         0.049748         2.070637
 H        -0.803295         1.902600        -0.106217
 H        -3.158039         1.006816         2.376579
 H        -3.118016         1.942908         0.843758
 H        -3.130243        -0.459750        -0.470020
 H        -4.224379        -1.597206         1.357629
 H        -3.039901        -2.587862         0.625126
 H        -2.832657        -2.611723         3.385301
 H        -1.063513        -1.322677         3.921551
 H        -0.519135         0.825974         2.887414
 H         0.243484        -0.136250         1.512644
