19
Iteration:  3369
 O        -0.988010         0.770256        -0.102070
 C        -1.645314         0.290199         1.041460
 C        -3.044372         0.970625         1.140584
 C        -2.883174        -0.481474         0.586067
 C        -3.352539        -1.589655         1.483851
 C        -2.307481        -2.014206         2.398140
 O        -1.037383        -2.452224         1.914001
 C        -1.049617        -1.298443         2.857490
 C        -0.769126         0.062915         2.238565
 H        -0.453394         1.564684         0.168291
 H        -3.753264         0.944442         1.984934
 H        -3.088082         1.895288         0.449306
 H        -2.937284        -0.472325        -0.498323
 H        -4.260814        -1.272723         1.980146
 H        -3.524657        -2.456176         0.835203
 H        -2.651086        -2.716091         3.188448
 H        -0.468093        -1.667447         3.780988
 H        -0.757388         0.838596         3.060452
 H         0.320806         0.057390         1.913269
