19
Iteration:   224charge 0 multiplicity 1
 O        -1.000989         1.177111        -0.225585
 C        -1.638909         0.436128         0.826054
 C        -3.096794         0.758622         1.210788
 C        -2.779218        -0.527047         0.483355
 C        -3.058785        -1.890081         1.156897
 C        -2.411109        -2.018884         2.518117
 O        -0.952755        -2.456398         2.592042
 C        -1.315239        -1.101609         2.969434
 C        -0.741089        -0.068684         2.032688
 H        -1.367569         0.677546        -0.942311
 H        -3.314850         0.789692         2.327228
 H        -3.636838         1.537750         0.691091
 H        -3.119500        -0.479698        -0.617634
 H        -4.134518        -1.856139         1.369492
 H        -2.782228        -2.711546         0.483233
 H        -3.032977        -2.616715         3.173278
 H        -1.173064        -0.931257         4.051482
 H        -0.350112         0.794385         2.503659
 H         0.076228        -0.691605         1.560837
