19
Iteration:  3481
 O        -0.908353         0.861065        -0.212802
 C        -1.650947         0.398505         0.990313
 C        -2.954718         0.930860         1.410078
 C        -2.901290        -0.411377         0.719934
 C        -3.304677        -1.751439         1.218108
 C        -2.404311        -2.101755         2.490993
 O        -1.050900        -2.436779         2.100110
 C        -1.214577        -1.221023         2.837814
 C        -0.669671        -0.005976         2.049459
 H        -1.226234         1.723032        -0.487004
 H        -3.125579         0.975781         2.485058
 H        -3.337623         1.737117         0.841275
 H        -2.977410        -0.351484        -0.387465
 H        -4.293451        -1.744876         1.581459
 H        -2.972872        -2.538304         0.617875
 H        -2.961469        -2.751476         3.196887
 H        -0.909227        -1.333384         3.899141
 H        -0.480540         0.881746         2.733241
 H         0.240041        -0.351718         1.536770
