19
Iteration:  1804charge 0 multiplicity 1
 O        -0.903737         1.100712        -0.176028
 C        -1.657619         0.356218         0.837871
 C        -3.007003         0.876229         1.506083
 C        -2.939175        -0.305105         0.551974
 C        -3.124130        -1.749750         1.127831
 C        -2.425048        -2.052189         2.512868
 O        -1.053067        -2.552708         2.460640
 C        -1.269326        -1.171254         2.888364
 C        -0.647969        -0.269234         1.826824
 H        -1.705166         1.388648        -0.669192
 H        -2.912087         0.857238         2.549758
 H        -3.481008         1.819111         1.318444
 H        -3.446020         0.023407        -0.309992
 H        -4.168531        -2.079363         1.031156
 H        -2.689418        -2.436493         0.339336
 H        -2.989644        -2.246572         3.475217
 H        -1.079789        -0.914309         3.929283
 H        -0.044331         0.585911         2.266054
 H         0.076196        -0.893221         1.320237
