19
Iteration:  4593
 O        -1.199464         0.957011        -0.216443
 C        -1.604610         0.476379         1.065110
 C        -3.022631         0.992284         1.216532
 C        -2.838829        -0.369202         0.554220
 C        -3.228184        -1.647105         1.202792
 C        -2.355648        -2.011341         2.497814
 O        -1.044505        -2.657076         2.286370
 C        -1.065233        -1.319754         2.839921
 C        -0.634738        -0.138336         2.087328
 H        -0.693437         1.783518        -0.063050
 H        -3.633862         0.943679         2.168113
 H        -3.507767         1.800232         0.681785
 H        -2.870254        -0.380274        -0.521361
 H        -4.261740        -1.729324         1.534030
 H        -3.057029        -2.428222         0.487034
 H        -2.908722        -2.456037         3.280065
 H        -0.672762        -1.366710         3.914097
 H        -0.508924         0.655265         2.820408
 H         0.415090        -0.331224         1.831898
