19
Iteration:  2309charge 0 multiplicity 1
 O        -0.818660         0.702425        -0.126930
 C        -1.703375         0.421324         0.916745
 C        -3.037421         1.157288         1.242202
 C        -2.945814        -0.340086         0.730548
 C        -3.238788        -1.574624         1.502014
 C        -2.300079        -2.126390         2.452294
 O        -1.017160        -2.500623         1.906304
 C        -1.054236        -1.344862         2.786125
 C        -0.898085        -0.011004         2.207625
 H        -1.391685         0.570621        -0.932471
 H        -3.200842         1.190970         2.345303
 H        -3.420790         2.008713         0.569670
 H        -3.025039        -0.421746        -0.397314
 H        -4.245239        -1.416511         1.972273
 H        -3.452986        -2.472663         0.793895
 H        -2.698283        -2.955347         3.204579
 H        -0.552556        -1.499334         3.763858
 H        -1.221118         0.599866         3.088197
 H         0.129629         0.076073         1.882409
