19
Iteration:  3394
 O        -0.932762         0.941280        -0.117243
 C        -1.651425         0.422585         0.971392
 C        -3.081889         0.914295         1.109357
 C        -2.783697        -0.513847         0.598024
 C        -3.342169        -1.588932         1.548478
 C        -2.364460        -2.122925         2.525208
 O        -1.030044        -2.454497         1.961075
 C        -1.112796        -1.351273         2.787991
 C        -0.793210        -0.002177         2.147444
 H        -0.119658         1.356652         0.215443
 H        -3.510106         0.865327         2.119794
 H        -3.457372         1.661056         0.453887
 H        -2.932080        -0.499090        -0.450457
 H        -4.263977        -1.186276         1.968169
 H        -3.739469        -2.368878         0.788746
 H        -2.599644        -2.672807         3.461927
 H        -0.631667        -1.543387         3.775262
 H        -0.578747         0.702185         3.003116
 H         0.195758        -0.106259         1.714731
