19
Iteration:  1274charge 0 multiplicity 1
 O        -0.894743         0.999744        -0.102423
 C        -1.641317         0.356417         0.897052
 C        -3.082915         0.925019         1.029447
 C        -2.933240        -0.493663         0.537910
 C        -3.299826        -1.706781         1.380222
 C        -2.292361        -2.065198         2.496730
 O        -0.890972        -2.553277         2.265405
 C        -1.164419        -1.273212         2.889520
 C        -0.820206         0.024165         2.091571
 H        -1.059492         1.962383        -0.089259
 H        -3.495188         0.971938         2.034490
 H        -3.327848         1.615589         0.185371
 H        -3.085507        -0.670548        -0.562784
 H        -4.224901        -1.622418         2.079693
 H        -3.638374        -2.623335         0.841173
 H        -2.706650        -2.500670         3.462350
 H        -0.996708        -1.352363         3.935047
 H        -0.854361         0.878225         2.715009
 H         0.187902         0.082148         1.738157
