19
Iteration:  1330charge 0 multiplicity 1
 O        -0.876887         0.767278        -0.125015
 C        -1.649095         0.341018         1.004449
 C        -2.988483         0.883474         1.152700
 C        -2.856499        -0.539077         0.566980
 C        -3.325848        -1.737228         1.341381
 C        -2.352102        -2.073829         2.468243
 O        -0.980183        -2.345593         2.023828
 C        -1.143993        -1.231955         2.873129
 C        -0.822464         0.255875         2.317194
 H        -1.400796         0.703931        -0.925733
 H        -3.475656         1.257930         2.147459
 H        -3.355191         1.644900         0.493464
 H        -3.055410        -0.570129        -0.526359
 H        -4.437058        -1.768778         1.776569
 H        -3.237955        -2.661859         0.674304
 H        -2.509349        -2.958861         3.197881
 H        -0.624287        -1.409245         3.779321
 H        -1.309219         0.867771         3.051011
 H         0.194874         0.461337         2.078806
