19
Iteration:  1930charge 0 multiplicity 1
 O        -0.896501         1.021789        -0.079466
 C        -1.655148         0.384917         0.904504
 C        -2.966358         0.989235         1.354860
 C        -2.962578        -0.394018         0.553215
 C        -3.241600        -1.689359         1.345805
 C        -2.390633        -2.057155         2.505373
 O        -1.052862        -2.501835         2.235719
 C        -1.175713        -1.302096         2.895637
 C        -0.679916        -0.179885         1.881317
 H        -1.383758         1.458336        -0.774723
 H        -3.327702         0.875035         2.398369
 H        -3.516799         1.872071         0.794831
 H        -3.196900        -0.526504        -0.512466
 H        -4.309055        -1.863827         1.572199
 H        -2.821184        -2.400821         0.678155
 H        -2.842107        -2.422011         3.383009
 H        -0.801054        -1.287878         3.959667
 H        -0.346379         0.646526         2.410224
 H         0.007004        -0.596436         1.127636
