19
Iteration:  3957
 O        -0.898306         0.809318        -0.132300
 C        -1.660938         0.350672         0.966170
 C        -3.038470         1.024239         1.266362
 C        -2.894804        -0.414927         0.688348
 C        -3.319612        -1.715245         1.371279
 C        -2.349962        -2.039792         2.531505
 O        -1.052230        -2.453157         2.011257
 C        -1.033499        -1.295834         2.764661
 C        -0.829721        -0.032793         2.134927
 H        -0.871205         1.759340        -0.179152
 H        -3.094588         1.317857         2.299566
 H        -3.412765         1.636358         0.425064
 H        -3.177881        -0.312530        -0.428407
 H        -4.393705        -1.805040         1.415436
 H        -2.856416        -2.404604         0.738935
 H        -2.764452        -2.691767         3.264397
 H        -0.560466        -1.330886         3.785877
 H        -0.915644         0.668241         2.921507
 H         0.183943         0.031750         1.828505
