19
Iteration:  4194
 O        -0.970144         1.020382        -0.297785
 C        -1.641465         0.415290         0.887366
 C        -3.008961         0.920397         1.302705
 C        -2.849685        -0.394555         0.609464
 C        -3.242659        -1.710788         1.372318
 C        -2.415525        -2.114368         2.572902
 O        -1.021370        -2.576166         2.128890
 C        -1.121675        -1.338937         2.849925
 C        -0.761432        -0.052225         2.141133
 H        -0.862238         1.942054        -0.029090
 H        -3.222188         0.981298         2.423252
 H        -3.364967         1.779838         0.771182
 H        -3.190968        -0.516579        -0.466177
 H        -4.276790        -1.494295         1.635029
 H        -3.173880        -2.482435         0.522147
 H        -2.977737        -2.340655         3.541768
 H        -0.647125        -1.398416         3.824057
 H        -0.803480         0.846587         2.687036
 H         0.286560        -0.041033         1.772437
