19
Iteration:  1262
 O        -1.012347         1.042886        -0.171148
 C        -1.673235         0.349603         0.883878
 C        -3.015724         0.892105         1.080645
 C        -2.818028        -0.510879         0.472196
 C        -3.199626        -1.666837         1.407881
 C        -2.345019        -2.117762         2.579646
 O        -0.974366        -2.577143         2.300587
 C        -1.129759        -1.259266         2.841137
 C        -0.800592         0.013061         2.106819
 H        -1.055369         2.000741         0.121565
 H        -3.598464         1.118740         1.948443
 H        -3.257822         1.675917         0.294012
 H        -3.109368        -0.591563        -0.596095
 H        -4.186692        -1.292814         1.782088
 H        -3.376427        -2.567473         0.758072
 H        -2.894077        -2.727523         3.321609
 H        -0.753881        -1.131486         3.857582
 H        -1.049906         0.713492         2.867741
 H         0.264929         0.032007         1.923855
