19
Iteration:  3695charge 0 multiplicity 1
 O        -1.039905         1.191068        -0.147147
 C        -1.678869         0.330698         0.853286
 C        -3.017386         0.778955         1.512569
 C        -2.839669        -0.431187         0.475875
 C        -3.141690        -1.701167         1.196904
 C        -2.352516        -1.959928         2.465943
 O        -1.146772        -2.555236         2.424501
 C        -1.193968        -1.205534         2.861830
 C        -0.665657        -0.218553         1.794793
 H        -0.314474         1.664960         0.330380
 H        -3.153171         0.516302         2.569968
 H        -3.310732         1.833114         1.181826
 H        -3.233364        -0.377683        -0.500986
 H        -4.169173        -1.808638         1.526995
 H        -2.915955        -2.580710         0.492247
 H        -3.021823        -2.325222         3.281322
 H        -0.805069        -0.963195         3.862748
 H        -0.173586         0.685444         2.397159
 H         0.155393        -0.842277         1.303643
