19
Iteration:  2794
 O        -1.002417         1.115454        -0.157591
 C        -1.634543         0.326442         0.859019
 C        -2.923793         0.900889         1.373528
 C        -2.965325        -0.403957         0.633840
 C        -3.285199        -1.753977         1.228793
 C        -2.368765        -2.002256         2.483246
 O        -1.097099        -2.529417         2.232321
 C        -1.167058        -1.235371         2.820587
 C        -0.637663        -0.105714         2.025891
 H        -0.336008         0.545869        -0.637323
 H        -2.961194         0.750164         2.484138
 H        -3.314737         1.809143         0.896449
 H        -3.463461        -0.248581        -0.357631
 H        -4.260111        -1.757243         1.669828
 H        -3.063506        -2.621655         0.628715
 H        -2.851572        -2.426808         3.411628
 H        -0.863790        -1.261163         3.885273
 H        -0.496758         0.744530         2.737499
 H         0.388967        -0.523875         1.800718
