19
Iteration:  3455charge 0 multiplicity 1
 O        -0.967354         0.819758        -0.166497
 C        -1.697343         0.406450         0.973187
 C        -3.065275         0.961202         1.283550
 C        -2.908449        -0.341277         0.598919
 C        -3.269777        -1.589719         1.280257
 C        -2.305034        -2.046559         2.481126
 O        -0.993090        -2.556675         2.104581
 C        -1.117395        -1.329002         2.865849
 C        -0.696994        -0.060850         2.126350
 H        -1.052501         1.758998        -0.350099
 H        -3.286035         0.946474         2.376768
 H        -3.378563         1.888890         0.708564
 H        -3.074048        -0.333427        -0.462612
 H        -4.277886        -1.494154         1.793666
 H        -3.201626        -2.499488         0.697439
 H        -2.918230        -2.504590         3.261076
 H        -0.881217        -1.461884         3.968452
 H        -0.761592         0.754559         2.816402
 H         0.330487        -0.185891         1.682134
