19
Iteration:  3837
 O        -1.081673         1.027256        -0.212425
 C        -1.643577         0.348371         0.900987
 C        -2.929467         0.872260         1.369733
 C        -2.867332        -0.389881         0.546212
 C        -3.260672        -1.667571         1.270651
 C        -2.354439        -2.016876         2.467691
 O        -1.054769        -2.596187         2.255156
 C        -1.144293        -1.295420         2.869873
 C        -0.706656        -0.016246         2.033702
 H        -0.274683         1.481855         0.164622
 H        -3.125842         0.629168         2.461650
 H        -3.482387         1.636387         0.887766
 H        -2.863864        -0.320198        -0.534915
 H        -4.261207        -1.568414         1.710402
 H        -3.238728        -2.502628         0.469985
 H        -2.908860        -2.562519         3.223927
 H        -1.040624        -1.289130         3.958498
 H        -0.620489         0.873432         2.682691
 H         0.276090        -0.201560         1.598100
