19
Iteration:   398charge 0 multiplicity 1
 O        -1.117572         0.967811        -0.141418
 C        -1.727925         0.373675         0.925896
 C        -3.210072         0.779807         1.247677
 C        -2.778007        -0.493314         0.474725
 C        -2.897631        -1.848398         1.078930
 C        -2.433023        -1.761441         2.508337
 O        -1.041059        -2.513595         2.607588
 C        -1.145412        -1.164819         2.848608
 C        -0.656426        -0.083723         1.934956
 H        -0.389290         1.613121         0.120470
 H        -3.614630         0.811937         2.241686
 H        -3.819989         1.527165         0.646555
 H        -3.111877        -0.416121        -0.643610
 H        -3.996620        -2.150584         1.128509
 H        -2.534762        -2.736568         0.565725
 H        -3.142724        -1.830224         3.276526
 H        -1.145871        -1.008623         3.917922
 H        -0.341850         0.840212         2.531512
 H         0.218817        -0.449901         1.355756
