19
Iteration:  3353
 O        -0.895299         0.717940        -0.161172
 C        -1.678855         0.375887         0.985222
 C        -3.041451         1.009778         1.158887
 C        -2.914547        -0.378689         0.658105
 C        -3.305546        -1.576292         1.433052
 C        -2.271802        -2.146555         2.514067
 O        -1.006574        -2.413130         1.890636
 C        -1.082772        -1.342738         2.830887
 C        -0.825912         0.023464         2.284550
 H        -0.752467         1.703919        -0.127075
 H        -3.201483         1.229767         2.205266
 H        -3.394480         1.584557         0.383075
 H        -3.154801        -0.545832        -0.411669
 H        -4.298567        -1.553676         1.945591
 H        -3.564889        -2.433692         0.770019
 H        -2.700941        -2.834699         3.252500
 H        -0.788674        -1.442056         3.831433
 H        -1.048752         0.797429         2.983860
 H         0.196468         0.123119         1.925332
