19
Iteration:   927charge 0 multiplicity 1
 O        -0.939579         1.034050        -0.122937
 C        -1.668068         0.387549         0.899859
 C        -3.074867         0.761624         1.171030
 C        -2.865713        -0.500413         0.442752
 C        -3.160934        -1.773297         1.307159
 C        -2.403918        -1.900505         2.651859
 O        -1.114435        -2.485416         2.289066
 C        -1.100542        -1.225477         2.876142
 C        -0.696899        -0.042719         2.007206
 H        -1.151224         1.996893        -0.236459
 H        -3.469074         0.616580         2.158253
 H        -3.564792         1.649206         0.710661
 H        -3.248455        -0.794148        -0.522049
 H        -4.242987        -2.015244         1.341363
 H        -2.782323        -2.515721         0.584989
 H        -2.744311        -2.429726         3.519581
 H        -0.557226        -1.087121         3.908519
 H        -0.624084         0.690641         2.766134
 H         0.304145        -0.277364         1.658460
