19
Iteration:  3489charge 0 multiplicity 1
 O        -0.932135         0.889122        -0.156708
 C        -1.584868         0.392940         0.923061
 C        -2.973854         0.920921         1.407064
 C        -2.858598        -0.415332         0.689295
 C        -3.278312        -1.757279         1.279201
 C        -2.443240        -2.112423         2.474944
 O        -1.020287        -2.414415         2.112437
 C        -1.242562        -1.244309         2.830441
 C        -0.703702        -0.071409         1.994848
 H        -1.219573         1.745186        -0.434930
 H        -2.986354         1.140359         2.530361
 H        -3.342793         1.808661         0.883878
 H        -3.316683        -0.288078        -0.227981
 H        -4.445909        -1.752090         1.339546
 H        -3.042870        -2.516103         0.520321
 H        -2.722930        -2.433903         3.465773
 H        -1.025392        -1.340380         3.969002
 H        -0.602890         0.853959         2.544620
 H         0.373198        -0.285746         1.744832
