19
Iteration:   892charge 0 multiplicity 1
 O        -0.962103         0.908312        -0.156802
 C        -1.599695         0.419197         0.915334
 C        -2.972598         0.850815         1.180980
 C        -2.831065        -0.575504         0.614159
 C        -3.306231        -1.707627         1.332348
 C        -2.309993        -2.152684         2.504828
 O        -0.950916        -2.460973         2.219389
 C        -1.273844        -1.101241         2.803546
 C        -0.761705         0.048449         2.119851
 H        -1.324273         1.798876        -0.404911
 H        -3.491409         0.834544         2.154829
 H        -3.325117         1.645791         0.431369
 H        -3.165812        -0.568775        -0.439181
 H        -4.289102        -1.557264         1.890872
 H        -3.395600        -2.517720         0.616641
 H        -2.723322        -2.644753         3.392450
 H        -1.103847        -1.179377         3.864959
 H        -0.770026         0.847580         2.828035
 H         0.273310        -0.106445         1.827138
