19
Iteration:  4987charge 0 multiplicity 1
 O        -1.046935         1.018484        -0.196700
 C        -1.618497         0.335754         0.883784
 C        -2.921770         0.796188         1.424284
 C        -2.848665        -0.407916         0.622367
 C        -3.177043        -1.665402         1.287658
 C        -2.367875        -2.074269         2.459682
 O        -1.045219        -2.522795         2.163932
 C        -1.256523        -1.197238         2.836159
 C        -0.720899        -0.078463         2.003234
 H        -0.836819         1.891504         0.195324
 H        -2.981186         0.627107         2.543176
 H        -3.357153         1.706869         0.929645
 H        -3.235959        -0.326810        -0.339237
 H        -4.193911        -1.598443         1.845451
 H        -3.428603        -2.476372         0.603207
 H        -2.757686        -2.405590         3.400184
 H        -0.792721        -1.012935         3.806078
 H        -0.711113         0.782042         2.632698
 H         0.109176        -0.535499         1.509689
