19
Iteration:   120
 O        -0.927912         1.028280        -0.063167
 C        -1.714902         0.294025         0.951816
 C        -3.167202         0.785318         0.879959
 C        -2.808224        -0.604844         0.461582
 C        -3.229699        -1.747534         1.382946
 C        -2.275900        -2.132978         2.497034
 O        -0.883463        -2.337284         2.267567
 C        -1.215889        -1.127321         2.988234
 C        -0.863038         0.115164         2.208479
 H        -0.422626         0.331939        -0.566136
 H        -3.637253         1.059846         1.822500
 H        -3.342659         1.470147         0.137738
 H        -2.755974        -0.856569        -0.631418
 H        -4.202083        -1.420859         1.849754
 H        -3.604944        -2.606331         0.779723
 H        -2.805651        -2.841379         3.148883
 H        -0.861058        -1.175316         4.019057
 H        -0.827203         1.127305         2.630733
 H         0.149073        -0.025828         1.923805
