19
Iteration:  3417charge 0 multiplicity 1
 O        -0.893136         1.040861        -0.167737
 C        -1.669590         0.418801         0.928587
 C        -3.041948         0.974246         1.126051
 C        -2.962205        -0.465384         0.603062
 C        -3.246913        -1.671344         1.527605
 C        -2.290120        -2.166464         2.525281
 O        -1.081534        -2.633992         1.991501
 C        -1.157419        -1.265388         2.907507
 C        -0.755037        -0.011875         2.092073
 H        -0.215142         1.541488         0.302389
 H        -3.250798         1.358225         2.126027
 H        -3.314642         1.645040         0.385065
 H        -2.996534        -0.522293        -0.513982
 H        -4.174298        -1.336049         2.025312
 H        -3.645950        -2.464250         0.752370
 H        -2.611678        -2.816204         3.396893
 H        -0.798155        -1.400121         3.900072
 H        -0.783761         0.751337         2.934044
 H         0.265873         0.066048         1.795567
