19
Iteration:  1234
 O        -1.044387         1.023432        -0.262465
 C        -1.659128         0.488504         0.966064
 C        -3.099234         0.766239         1.194348
 C        -2.761718        -0.545687         0.513221
 C        -3.138732        -1.751124         1.326847
 C        -2.461851        -1.963482         2.608024
 O        -1.056507        -2.555118         2.212216
 C        -1.146344        -1.254055         2.903634
 C        -0.649766         0.054000         2.104731
 H        -0.462439         1.789277        -0.067973
 H        -3.749321         0.844477         2.076431
 H        -3.543153         1.460796         0.530904
 H        -2.868725        -0.488290        -0.580591
 H        -4.241528        -1.620633         1.376990
 H        -3.095700        -2.692858         0.770083
 H        -2.902476        -2.516778         3.470420
 H        -0.901983        -1.251501         3.986314
 H        -0.551049         0.816545         2.959964
 H         0.334681        -0.276305         1.693095
