19
Iteration:  1347
 O        -0.867475         0.831438        -0.128854
 C        -1.618159         0.335393         0.968206
 C        -3.090050         0.953305         1.089394
 C        -2.897741        -0.472325         0.627108
 C        -3.298178        -1.717446         1.348505
 C        -2.290597        -2.126530         2.476959
 O        -0.962120        -2.419169         2.028298
 C        -1.039227        -1.214632         2.890939
 C        -0.941917         0.165146         2.281588
 H        -0.970857         0.160557        -0.798741
 H        -3.383312         0.872512         2.074947
 H        -3.288520         1.763975         0.339536
 H        -3.001921        -0.595849        -0.453418
 H        -4.217865        -1.485619         1.789979
 H        -3.624254        -2.577312         0.768956
 H        -2.755456        -2.671287         3.241640
 H        -0.816117        -1.445499         3.978093
 H        -1.297704         0.938094         3.022682
 H         0.155306         0.463371         2.266056
