19
Iteration:  2126charge 0 multiplicity 1
 O        -0.784924         0.743353        -0.087916
 C        -1.689675         0.314482         0.957208
 C        -2.985994         0.959359         1.245901
 C        -3.014494        -0.332256         0.703336
 C        -3.379639        -1.624286         1.439552
 C        -2.271939        -2.069038         2.470068
 O        -0.991517        -2.304465         1.905607
 C        -1.108466        -1.292786         2.839854
 C        -0.799452        -0.114337         2.147356
 H        -1.357076         0.857486        -0.827044
 H        -3.403179         0.917381         2.351015
 H        -3.506211         1.777199         0.721232
 H        -3.174968        -0.282801        -0.402694
 H        -4.323362        -1.423692         2.049712
 H        -3.549863        -2.385997         0.680941
 H        -2.732539        -2.698883         3.165428
 H        -0.719388        -1.420293         3.875914
 H        -0.611736         0.778321         2.857644
 H         0.213175        -0.143908         1.618514
