19
Iteration:  2900
 O        -1.012422         1.104281        -0.108771
 C        -1.578677         0.349512         0.970587
 C        -2.996798         0.897264         1.196544
 C        -2.864588        -0.477291         0.610387
 C        -3.371726        -1.585160         1.471684
 C        -2.291889        -2.105475         2.546935
 O        -1.139385        -2.557489         2.056833
 C        -1.154275        -1.305583         2.754014
 C        -0.611999        -0.035973         2.075501
 H        -0.106583         0.741195        -0.331025
 H        -3.618523         0.788426         2.089709
 H        -3.437636         1.702323         0.637659
 H        -2.834889        -0.488916        -0.528919
 H        -4.296635        -1.345432         1.964491
 H        -3.644196        -2.458241         0.806823
 H        -2.934170        -2.584914         3.360405
 H        -0.660792        -1.492215         3.706757
 H        -0.548611         0.788276         2.818341
 H         0.350598        -0.151065         1.613555
