19
Iteration:  3404
 O        -0.884044         1.007586        -0.160844
 C        -1.643752         0.408724         0.936347
 C        -3.088992         0.921596         1.141452
 C        -2.800349        -0.479045         0.658770
 C        -3.323245        -1.594596         1.533416
 C        -2.296810        -2.134462         2.500919
 O        -1.083089        -2.554533         1.973208
 C        -1.149687        -1.302318         2.834174
 C        -0.801098         0.026766         2.143803
 H        -0.061703         1.438669         0.198014
 H        -3.695578         0.936634         2.069729
 H        -3.348535         1.621368         0.370843
 H        -3.099471        -0.717324        -0.316549
 H        -4.189959        -1.394292         2.143694
 H        -3.568622        -2.547296         1.025159
 H        -2.874204        -2.868689         3.069242
 H        -0.499370        -1.423502         3.731448
 H        -0.697738         0.955530         2.786064
 H         0.160483        -0.317011         1.745748
