19
Iteration:  4912charge 0 multiplicity 1
 O        -0.866231         0.948048        -0.157119
 C        -1.693635         0.390043         0.889571
 C        -3.079539         0.972340         1.259928
 C        -2.992685        -0.352543         0.630012
 C        -3.281632        -1.723642         1.359635
 C        -2.315991        -2.074078         2.531686
 O        -1.047192        -2.547864         2.103590
 C        -1.030130        -1.323834         2.782431
 C        -0.769195        -0.045224         2.112710
 H        -0.792271         1.891469         0.062684
 H        -3.321892         1.096269         2.388831
 H        -3.581690         1.693729         0.628846
 H        -3.262734        -0.411723        -0.388918
 H        -4.403813        -1.673652         1.715819
 H        -3.048145        -2.641123         0.780391
 H        -2.692770        -2.643436         3.338814
 H        -0.450965        -1.192257         3.753933
 H        -0.719887         0.701343         2.931038
 H         0.248437        -0.254371         1.662763
