19
Iteration:  2976charge 0 multiplicity 1
 O        -0.893478         0.873548        -0.145589
 C        -1.593938         0.416242         0.875886
 C        -3.048063         1.097724         1.277349
 C        -2.970815        -0.343019         0.733823
 C        -3.312562        -1.608746         1.379019
 C        -2.280885        -2.141547         2.447481
 O        -0.930556        -2.581446         2.072593
 C        -1.111619        -1.337437         2.856184
 C        -0.848779        -0.019510         2.102712
 H        -0.938624         0.250924        -0.845950
 H        -3.368573         1.336539         2.257009
 H        -3.571937         1.851093         0.607773
 H        -3.254399        -0.269260        -0.363793
 H        -4.116985        -1.619833         2.017200
 H        -3.615831        -2.327483         0.556158
 H        -2.941476        -2.969395         2.989276
 H        -0.904506        -1.311267         3.978808
 H        -0.858225         0.687331         2.965371
 H         0.171883         0.023978         1.752505
