19
Iteration:  4778charge 0 multiplicity 1
 O        -1.068915         0.844739        -0.228326
 C        -1.647882         0.387437         1.031689
 C        -2.978998         0.988933         1.242886
 C        -2.814891        -0.434913         0.708172
 C        -3.282120        -1.668286         1.315120
 C        -2.361333        -2.205770         2.434835
 O        -0.969528        -2.432376         2.061581
 C        -1.194894        -1.281152         2.827410
 C        -0.730764         0.042496         2.174625
 H        -0.924977         1.817745        -0.065901
 H        -3.232092         0.985577         2.273690
 H        -3.304940         1.837194         0.580706
 H        -2.886102        -0.649055        -0.391257
 H        -4.217297        -1.472108         1.802315
 H        -3.590687        -2.489548         0.723399
 H        -2.736971        -2.671725         3.287934
 H        -0.649928        -1.441779         3.753461
 H        -0.579348         0.868678         2.910102
 H         0.270770        -0.241453         1.785863
