19
Iteration:  3421charge 0 multiplicity 1
 O        -0.909296         1.030762        -0.146090
 C        -1.698259         0.417694         0.894341
 C        -3.017643         0.998857         1.114764
 C        -2.957420        -0.457117         0.607367
 C        -3.264815        -1.677236         1.502623
 C        -2.260761        -2.171996         2.536186
 O        -1.061749        -2.623692         2.017664
 C        -1.164133        -1.302345         2.878704
 C        -0.753620        -0.018810         2.115115
 H        -0.227519         1.629638         0.229675
 H        -3.195271         1.242382         2.168216
 H        -3.284650         1.762888         0.311729
 H        -3.073428        -0.397443        -0.515254
 H        -4.292497        -1.426486         1.947679
 H        -3.693024        -2.437080         0.813785
 H        -2.641892        -2.636062         3.488360
 H        -0.776988        -1.375831         3.914531
 H        -0.788983         0.680322         2.934378
 H         0.313185         0.058263         1.779397
