19
Iteration:  3224charge 0 multiplicity 1
 O        -0.834723         0.994288        -0.030639
 C        -1.683557         0.368894         0.931568
 C        -3.018047         1.023204         1.128555
 C        -2.918779        -0.453179         0.560304
 C        -3.308964        -1.583024         1.542847
 C        -2.282267        -2.167851         2.538511
 O        -1.108760        -2.574316         1.952661
 C        -0.988542        -1.331393         2.804300
 C        -0.891304         0.000019         2.159273
 H        -0.954156         0.598931        -0.890014
 H        -3.386365         1.301258         2.189340
 H        -3.232273         1.724179         0.324900
 H        -3.184862        -0.633241        -0.522267
 H        -4.202929        -1.210450         2.098180
 H        -3.632660        -2.369369         0.947505
 H        -2.481350        -2.864232         3.337769
 H        -0.507575        -1.541821         3.818431
 H        -0.976718         0.754959         2.974144
 H         0.160171         0.329796         1.800024
