19
Iteration:  4448charge 0 multiplicity 1
 O        -0.983582         1.137353        -0.049794
 C        -1.702914         0.394740         0.829834
 C        -2.983778         0.879679         1.434515
 C        -2.963960        -0.382784         0.556918
 C        -3.124365        -1.766539         1.187836
 C        -2.310659        -2.020066         2.455673
 O        -1.079547        -2.566707         2.452240
 C        -1.195667        -1.158940         2.829693
 C        -0.752689        -0.290036         1.749841
 H        -0.161512         1.629222         0.224721
 H        -2.997726         0.908023         2.569692
 H        -3.511727         1.682966         0.999377
 H        -3.518465        -0.075835        -0.365423
 H        -4.165700        -2.020166         1.311699
 H        -2.791306        -2.590738         0.514773
 H        -2.930999        -2.161874         3.400130
 H        -0.827571        -1.023150         3.928481
 H        -0.260706         0.622235         2.078035
 H        -0.018148        -0.881843         1.191046
