19
Iteration:  3862
 O        -0.932246         1.064262        -0.148465
 C        -1.697180         0.435544         0.930228
 C        -3.119051         0.937493         1.254632
 C        -2.866729        -0.450563         0.575711
 C        -3.220974        -1.752764         1.367718
 C        -2.354142        -2.013581         2.628264
 O        -1.135719        -2.594413         2.163470
 C        -1.100642        -1.339266         2.710471
 C        -0.682205        -0.039021         2.040900
 H        -0.273837         1.594742         0.350679
 H        -3.250826         1.216316         2.235963
 H        -3.357174         1.626080         0.457059
 H        -3.152001        -0.432821        -0.547468
 H        -4.259901        -1.712634         1.632658
 H        -2.949386        -2.607742         0.661808
 H        -2.805599        -2.562838         3.451892
 H        -0.785998        -1.357041         3.728303
 H        -0.539862         0.710262         2.909710
 H         0.349592        -0.236727         1.597428
