19
Iteration:  3922
 O        -0.938446         0.939034        -0.180360
 C        -1.628836         0.387140         0.939521
 C        -2.991793         0.898673         1.254990
 C        -2.823624        -0.469629         0.587472
 C        -3.430413        -1.593258         1.445879
 C        -2.285498        -2.150144         2.352476
 O        -0.970207        -2.581580         2.121355
 C        -1.213523        -1.213619         2.835145
 C        -0.733106         0.004186         2.161739
 H        -1.260124         1.803638        -0.400321
 H        -3.303812         1.091987         2.368052
 H        -3.324842         1.785229         0.737311
 H        -3.017973        -0.355884        -0.459407
 H        -4.368535        -1.412776         2.032354
 H        -3.762929        -2.344944         0.820661
 H        -2.567413        -2.856286         3.146708
 H        -0.769290        -1.267782         3.895227
 H        -0.656427         0.837026         2.850518
 H         0.262444        -0.277453         1.835962
