19
Iteration:  1706charge 0 multiplicity 1
 O        -0.925769         1.273582        -0.066199
 C        -1.652447         0.418328         0.876480
 C        -3.019838         0.881878         1.333050
 C        -2.972161        -0.483109         0.554355
 C        -3.166791        -1.839779         1.220533
 C        -2.435868        -2.046799         2.521287
 O        -1.091086        -2.535662         2.469090
 C        -1.216744        -1.198140         2.807060
 C        -0.577126        -0.215575         1.852643
 H        -0.942020         0.773933        -0.913063
 H        -3.157114         0.952873         2.358540
 H        -3.248055         1.864265         0.788488
 H        -3.278608        -0.383410        -0.479703
 H        -4.266952        -1.842902         1.368830
 H        -3.020653        -2.675170         0.483613
 H        -2.937578        -2.542677         3.455792
 H        -1.226217        -0.890420         3.866432
 H         0.133511         0.486470         2.339320
 H         0.108013        -0.649995         1.134170
