19
Iteration:  2873charge 0 multiplicity 1
 O        -0.905622         1.088497        -0.071591
 C        -1.722492         0.377044         0.888892
 C        -2.947556         1.070535         1.245764
 C        -2.991180        -0.382667         0.573742
 C        -3.267593        -1.663221         1.397859
 C        -2.305904        -2.071067         2.555733
 O        -0.997738        -2.574667         2.150468
 C        -1.123287        -1.408646         2.820465
 C        -0.801708        -0.129752         2.005765
 H        -0.491857         0.410715        -0.687298
 H        -3.391709         1.090039         2.258671
 H        -3.432528         1.820184         0.529444
 H        -3.222397        -0.333137        -0.458863
 H        -4.220550        -1.496079         1.984269
 H        -3.363583        -2.568432         0.813056
 H        -2.866464        -2.598534         3.238716
 H        -0.723086        -1.423787         3.897511
 H        -0.667755         0.752547         2.680488
 H         0.157690        -0.285436         1.442964
