19
Iteration:  2984
 O        -0.896047         0.862601        -0.231217
 C        -1.665548         0.413806         0.946819
 C        -3.090894         1.099342         1.248948
 C        -2.975678        -0.291731         0.739849
 C        -3.236500        -1.605116         1.388911
 C        -2.324964        -2.192530         2.401215
 O        -0.935164        -2.554406         2.077316
 C        -1.124406        -1.329474         2.889045
 C        -0.790687        -0.043065         2.151378
 H        -0.929495         0.255324        -0.964370
 H        -3.224056         1.320787         2.348908
 H        -3.325504         1.891190         0.571731
 H        -3.344425        -0.236256        -0.333011
 H        -4.255025        -1.447624         1.950669
 H        -3.448368        -2.403796         0.633857
 H        -2.720801        -2.977133         3.057938
 H        -0.886955        -1.613923         3.934044
 H        -0.944803         0.760417         2.922021
 H         0.295336        -0.003138         1.960124
