19
Iteration:  3641charge 0 multiplicity 1
 O        -1.173316         0.990184        -0.251174
 C        -1.627281         0.483430         0.924760
 C        -2.945350         0.996801         1.431912
 C        -2.887794        -0.300637         0.648414
 C        -2.974658        -1.692835         1.104301
 C        -2.371136        -2.044875         2.501654
 O        -1.077553        -2.653310         2.417483
 C        -1.296165        -1.302926         2.885850
 C        -0.635304        -0.199421         1.923494
 H        -1.065039         1.951251        -0.115280
 H        -3.131700         1.089335         2.528415
 H        -3.551241         1.689313         0.760600
 H        -3.168641        -0.026084        -0.318784
 H        -3.980700        -2.105701         1.114366
 H        -2.598716        -2.416118         0.326535
 H        -3.110154        -2.477616         3.199802
 H        -1.052274        -1.050480         3.949139
 H        -0.051945         0.619914         2.444764
 H        -0.024636        -0.852226         1.229908
