19
Iteration:  4187charge 0 multiplicity 1
 O        -0.984215         1.015538        -0.332869
 C        -1.677774         0.398541         0.917371
 C        -3.007646         0.946631         1.305532
 C        -2.844771        -0.459141         0.625582
 C        -3.214261        -1.684079         1.378178
 C        -2.364259        -2.014172         2.557035
 O        -1.080052        -2.564081         2.119309
 C        -1.101053        -1.356979         2.810089
 C        -0.731956        -0.042620         2.178820
 H        -0.807017         1.829753         0.126341
 H        -3.275204         0.961391         2.343319
 H        -3.368529         1.709794         0.636018
 H        -3.068250        -0.501133        -0.418896
 H        -4.334893        -1.729350         1.541746
 H        -3.113840        -2.429221         0.634919
 H        -2.861795        -2.506143         3.364352
 H        -0.815557        -1.527682         3.880619
 H        -0.894121         0.698324         3.070360
 H         0.273408        -0.099391         1.773369
