19
Iteration:  2239charge 0 multiplicity 1
 O        -0.952654         0.945551        -0.212219
 C        -1.583615         0.328270         1.047435
 C        -3.012237         0.932242         1.121474
 C        -2.845775        -0.494727         0.655831
 C        -3.341687        -1.518808         1.618155
 C        -2.336372        -2.152503         2.472962
 O        -1.169310        -2.391463         1.835092
 C        -1.115339        -1.378657         2.809743
 C        -0.730105         0.049985         2.226275
 H        -0.014778         0.844512        -0.002689
 H        -3.500869         0.931113         2.112754
 H        -3.235943         1.769869         0.505705
 H        -2.874890        -0.703812        -0.409492
 H        -4.067372        -1.190156         2.427371
 H        -3.843927        -2.295153         1.064026
 H        -2.583087        -3.015268         3.141908
 H        -0.502635        -1.599246         3.694807
 H        -0.663517         0.631175         3.117902
 H         0.216015        -0.329128         1.760048
