19
Iteration:  4114charge 0 multiplicity 1
 O        -0.868566         0.945124        -0.215241
 C        -1.652482         0.307912         0.906409
 C        -2.966802         1.056889         1.237869
 C        -2.932627        -0.406426         0.604603
 C        -3.320347        -1.692820         1.513221
 C        -2.326155        -2.222159         2.442369
 O        -0.935207        -2.463173         2.083819
 C        -1.190622        -1.280742         2.851168
 C        -0.849329        -0.026871         2.142856
 H        -0.849963         1.880957         0.006889
 H        -3.254958         1.174240         2.275446
 H        -3.266194         1.840046         0.524783
 H        -3.210771        -0.482729        -0.394418
 H        -4.243953        -1.489630         2.042004
 H        -3.704922        -2.547752         0.856426
 H        -2.778902        -3.151557         2.895320
 H        -0.851730        -1.259916         3.895159
 H        -0.846474         0.854258         2.731184
 H         0.141984        -0.271233         1.698686
