19
Iteration:   898
 O        -0.941807         0.959708        -0.177564
 C        -1.602253         0.351169         0.908696
 C        -2.999151         0.827981         1.215206
 C        -2.806564        -0.537907         0.550247
 C        -3.280624        -1.750134         1.332207
 C        -2.315283        -2.058950         2.517339
 O        -0.994437        -2.489442         2.201308
 C        -1.267128        -1.116534         2.891922
 C        -0.773190         0.064963         2.086649
 H        -1.355160         1.816752        -0.407536
 H        -3.402947         0.943145         2.238185
 H        -3.405261         1.499644         0.534054
 H        -3.222234        -0.615717        -0.443633
 H        -4.258406        -1.614634         1.781154
 H        -3.441707        -2.626744         0.661296
 H        -2.653469        -2.675534         3.382002
 H        -0.801447        -1.171718         3.929729
 H        -0.806611         0.915042         2.857315
 H         0.270364        -0.271977         1.874194
