19
Iteration:   942
 O        -0.993940         1.045070        -0.105485
 C        -1.691721         0.340998         0.919869
 C        -3.128655         0.834891         1.187860
 C        -2.824318        -0.526905         0.527290
 C        -3.117145        -1.786729         1.244704
 C        -2.357281        -1.915866         2.567100
 O        -1.092418        -2.630649         2.386656
 C        -1.136503        -1.128022         2.813424
 C        -0.669748        -0.013683         1.948165
 H        -1.099554         1.994188         0.142310
 H        -3.574058         0.991453         2.184413
 H        -3.393935         1.589944         0.499507
 H        -2.853752        -0.330861        -0.545976
 H        -4.155868        -1.873799         1.531169
 H        -2.906209        -2.792846         0.813534
 H        -3.063481        -2.152171         3.406315
 H        -0.865276        -1.226819         3.924906
 H        -0.412332         0.932914         2.537582
 H         0.214520        -0.334416         1.328328
