19
Iteration:  1206charge 0 multiplicity 1
 O        -0.988138         0.933213        -0.110680
 C        -1.738348         0.310503         0.920447
 C        -3.012568         0.868096         1.307288
 C        -2.915891        -0.529548         0.510573
 C        -3.151517        -1.816628         1.203824
 C        -2.366898        -1.971014         2.459177
 O        -1.018450        -2.453914         2.309307
 C        -1.180232        -1.086492         2.960364
 C        -0.697020        -0.019666         1.947887
 H        -0.639011         1.732645         0.276115
 H        -3.368188         0.687819         2.359216
 H        -3.485991         1.723218         0.752148
 H        -2.897646        -0.393934        -0.554500
 H        -4.244741        -1.933393         1.313992
 H        -3.031070        -2.640791         0.453125
 H        -2.863394        -2.350154         3.351864
 H        -1.030954        -0.959720         4.082215
 H        -0.392119         0.876646         2.444652
 H         0.210671        -0.385541         1.448249
