19
Iteration:  1280
 O        -0.837383         0.974849        -0.083977
 C        -1.670846         0.357095         0.892580
 C        -3.111356         0.919914         1.000586
 C        -2.952965        -0.507424         0.556535
 C        -3.339097        -1.735578         1.416397
 C        -2.294199        -2.058102         2.445653
 O        -0.880597        -2.539924         2.239440
 C        -1.146282        -1.227317         2.911782
 C        -0.828664         0.023146         2.113684
 H        -1.042534         1.938756        -0.205849
 H        -3.427872         1.049652         2.036295
 H        -3.505379         1.719440         0.348989
 H        -3.018391        -0.610978        -0.506093
 H        -4.205643        -1.688706         2.051048
 H        -3.645618        -2.543232         0.720605
 H        -2.630545        -2.534285         3.337502
 H        -0.931645        -1.271245         4.040603
 H        -0.752652         0.896859         2.843809
 H         0.184314        -0.091506         1.615753
