19
Iteration:  4613
 O        -1.040919         0.977413        -0.231389
 C        -1.635044         0.364259         0.962348
 C        -3.000504         0.935416         1.347225
 C        -2.824528        -0.450544         0.589643
 C        -3.157951        -1.706418         1.300984
 C        -2.399142        -2.032661         2.523072
 O        -1.105840        -2.600526         2.167319
 C        -1.140180        -1.312459         2.824828
 C        -0.720644         0.041294         2.059441
 H        -0.819994         1.885866        -0.071488
 H        -3.134716         1.041037         2.414539
 H        -3.179540         1.912745         0.887454
 H        -3.193829        -0.458874        -0.417716
 H        -4.204642        -1.612674         1.397416
 H        -3.027835        -2.564855         0.636256
 H        -2.817303        -2.613722         3.340521
 H        -1.069206        -1.315610         3.950132
 H        -0.545607         0.858560         2.823957
 H         0.276932        -0.146676         1.585124
