19
Iteration:  1516
 O        -0.864883         0.809794        -0.072952
 C        -1.653748         0.405013         0.938019
 C        -3.014263         0.946712         1.246826
 C        -2.865887        -0.430170         0.542996
 C        -3.270700        -1.774143         1.306267
 C        -2.340181        -2.081420         2.439645
 O        -0.940697        -2.463610         2.151936
 C        -1.212660        -1.219912         2.848857
 C        -0.821827         0.114845         2.132518
 H        -1.448752         1.000179        -0.830808
 H        -3.220007         1.003286         2.274725
 H        -3.616681         1.641337         0.530697
 H        -3.055080        -0.328185        -0.514679
 H        -4.174831        -1.572350         1.804456
 H        -3.603520        -2.698173         0.819751
 H        -2.668304        -2.681176         3.334153
 H        -1.117562        -1.294834         3.910253
 H        -0.878469         0.901180         2.888863
 H         0.241771         0.047692         1.874197
