19
Iteration:   156
 O        -0.993340         0.956117        -0.300810
 C        -1.640659         0.356098         0.851525
 C        -3.164135         0.836764         1.074232
 C        -2.790452        -0.513046         0.527175
 C        -3.122592        -1.793327         1.283582
 C        -2.334122        -2.158889         2.505102
 O        -0.908161        -2.436352         2.391783
 C        -1.297522        -1.145244         2.993502
 C        -0.867688         0.142295         2.178986
 H        -0.189644         1.476982        -0.045141
 H        -3.470203         0.972006         2.129386
 H        -3.492125         1.601595         0.258167
 H        -2.807679        -0.556266        -0.493507
 H        -4.104809        -1.683725         1.800993
 H        -3.064925        -2.658740         0.643171
 H        -2.793535        -2.808107         3.268153
 H        -0.875071        -1.121583         4.038859
 H        -0.904448         0.982500         2.871240
 H         0.135297        -0.125568         1.918844
