19
Iteration:   968
 O        -1.117682         1.155534        -0.233721
 C        -1.643300         0.477978         0.905328
 C        -3.067416         0.824476         1.210625
 C        -2.831210        -0.422040         0.457550
 C        -3.160163        -1.761226         1.176044
 C        -2.388524        -2.094443         2.540760
 O        -0.952669        -2.572103         2.606172
 C        -1.230442        -1.179050         2.899794
 C        -0.637579        -0.185393         1.926814
 H        -0.581379         1.941060        -0.014677
 H        -3.521745         0.802638         2.209900
 H        -3.495499         1.730016         0.641993
 H        -3.034686        -0.247784        -0.610525
 H        -4.249777        -1.925925         1.461799
 H        -2.989469        -2.703914         0.656607
 H        -3.034199        -2.596571         3.274028
 H        -0.974090        -1.084428         3.883278
 H        -0.242109         0.612115         2.619011
 H         0.155303        -0.691901         1.342074
