19
Iteration:  4005
 O        -0.984657         0.898471        -0.237577
 C        -1.673597         0.413034         0.962742
 C        -3.004645         1.001505         1.219073
 C        -2.862129        -0.425681         0.666012
 C        -3.320065        -1.598418         1.439319
 C        -2.394378        -2.138036         2.494952
 O        -0.833509        -2.473796         2.020656
 C        -1.153806        -1.416296         2.884793
 C        -0.881450        -0.016852         2.137188
 H        -0.073340         1.304095        -0.084304
 H        -3.473452         0.941710         2.233223
 H        -3.223379         1.728011         0.509177
 H        -2.970927        -0.527424        -0.378573
 H        -4.039875        -1.030306         2.016041
 H        -3.852688        -2.274143         0.625353
 H        -2.880832        -2.888738         3.205249
 H        -0.864206        -1.566203         3.897693
 H        -0.850063         0.925081         2.749129
 H         0.207504        -0.150924         1.857508
