19
Iteration:  4968
 O        -1.128354         1.013791        -0.240244
 C        -1.603464         0.393031         0.930827
 C        -2.945892         0.901389         1.399175
 C        -2.868515        -0.441226         0.530788
 C        -3.331748        -1.678139         1.318192
 C        -2.391808        -2.109258         2.400255
 O        -0.980661        -2.522657         2.196112
 C        -1.133724        -1.302824         2.910211
 C        -0.626566        -0.039594         2.062841
 H        -0.617435         1.748349         0.087171
 H        -3.292231         0.756626         2.386363
 H        -3.256154         1.904598         0.914644
 H        -3.025269        -0.432300        -0.538980
 H        -4.411774        -1.425327         1.592944
 H        -3.532529        -2.633374         0.795358
 H        -2.874223        -2.746978         3.147548
 H        -0.950123        -1.138509         4.022490
 H        -0.502680         0.841007         2.746981
 H         0.430236        -0.325369         1.733569
