19
Iteration:   188charge 0 multiplicity 1
 O        -0.891622         0.837442        -0.112902
 C        -1.704811         0.319009         0.906951
 C        -3.133631         0.777976         1.204834
 C        -2.921462        -0.518440         0.477006
 C        -3.011695        -1.865637         1.172626
 C        -2.373175        -1.839292         2.544013
 O        -0.972775        -2.441583         2.406915
 C        -1.241482        -1.131709         2.816459
 C        -0.869166         0.138877         2.074416
 H        -1.131838         1.732246        -0.347877
 H        -3.343307         0.828280         2.291897
 H        -3.486896         1.766612         0.629606
 H        -2.902874        -0.481757        -0.522105
 H        -4.031406        -2.419401         1.240614
 H        -2.474216        -2.632977         0.617062
 H        -2.959106        -2.278850         3.391616
 H        -0.811096        -1.110455         3.855937
 H        -0.652496         0.867324         2.873174
 H         0.092938        -0.085609         1.732605
