19
Iteration:  4585
 O        -1.126711         1.014420        -0.190516
 C        -1.629168         0.455184         1.040057
 C        -3.133468         0.970985         1.193718
 C        -2.867049        -0.377060         0.569542
 C        -3.211792        -1.640736         1.236739
 C        -2.274049        -2.026326         2.447414
 O        -1.088224        -2.651646         2.306154
 C        -1.034388        -1.327596         2.922183
 C        -0.616193        -0.162592         2.027292
 H        -0.541254         1.761874        -0.193423
 H        -3.478279         1.054052         2.295209
 H        -3.419639         1.805465         0.586722
 H        -3.233832        -0.424869        -0.460550
 H        -4.359807        -1.545635         1.336115
 H        -3.142168        -2.446401         0.482850
 H        -2.706066        -2.573385         3.274602
 H        -1.001218        -1.213088         3.965697
 H        -0.465704         0.571828         2.799273
 H         0.381157        -0.411229         1.639959
