19
Iteration:  1535charge 0 multiplicity 1
 O        -0.822780         0.978312        -0.084944
 C        -1.642005         0.316050         0.932845
 C        -3.088441         0.853105         1.221264
 C        -2.877158        -0.516034         0.580544
 C        -3.268391        -1.706128         1.344765
 C        -2.366150        -2.030775         2.512463
 O        -1.069877        -2.456150         2.114614
 C        -1.144351        -1.210273         2.864129
 C        -0.805854         0.052839         2.120599
 H        -1.166796         0.824857        -1.009356
 H        -3.403610         0.690817         2.229832
 H        -3.202729         1.812883         0.651400
 H        -3.038077        -0.622745        -0.486840
 H        -4.395249        -1.800152         1.628288
 H        -2.965432        -2.563768         0.675391
 H        -2.760455        -2.594908         3.296543
 H        -0.599922        -1.136053         3.833668
 H        -0.758614         0.934481         2.856667
 H         0.287584         0.088898         1.751226
