19
Iteration:  3621
 O        -1.050412         1.077250        -0.301522
 C        -1.638161         0.381795         0.943724
 C        -2.998042         0.921477         1.478887
 C        -2.922194        -0.329372         0.647710
 C        -3.178842        -1.785571         1.087766
 C        -2.380110        -2.031462         2.443415
 O        -1.053223        -2.557953         2.445098
 C        -1.222430        -1.261559         2.884711
 C        -0.592186        -0.199656         1.909486
 H        -0.802351         1.973356        -0.067654
 H        -3.116770         0.640724         2.505024
 H        -3.266136         1.952199         1.192191
 H        -3.306018        -0.199870        -0.372452
 H        -4.285132        -1.874369         1.176341
 H        -2.862374        -2.494966         0.318778
 H        -2.954262        -2.510903         3.252430
 H        -1.117370        -0.925356         3.944842
 H        -0.239611         0.608366         2.477817
 H         0.192878        -0.737096         1.347176
