19
Iteration:  3450charge 0 multiplicity 1
 O        -0.949964         0.851815        -0.174479
 C        -1.736752         0.380348         0.974072
 C        -3.046145         0.964805         1.279954
 C        -2.923905        -0.362421         0.620019
 C        -3.270408        -1.561532         1.314805
 C        -2.345465        -2.017237         2.509658
 O        -0.959854        -2.574474         2.113268
 C        -1.108003        -1.360953         2.857379
 C        -0.715893        -0.063924         2.084675
 H        -0.920197         1.847245        -0.238684
 H        -3.329394         1.059435         2.308614
 H        -3.246390         1.759673         0.605428
 H        -2.853814        -0.313016        -0.528360
 H        -4.302346        -1.509044         1.699259
 H        -3.359469        -2.542728         0.637958
 H        -2.883039        -2.774960         3.175003
 H        -0.791762        -1.326833         3.876228
 H        -0.855443         0.700835         2.921144
 H         0.265465        -0.005309         1.650720
