19
Iteration:  3790charge 0 multiplicity 1
 O        -0.997154         0.953481        -0.119549
 C        -1.722437         0.437943         0.907066
 C        -2.986205         0.966766         1.393720
 C        -2.882713        -0.403345         0.660055
 C        -3.127724        -1.780355         1.199192
 C        -2.376060        -2.086788         2.441334
 O        -1.079264        -2.590446         2.331460
 C        -1.220983        -1.189202         2.793295
 C        -0.678243        -0.080375         1.948021
 H        -1.066876         1.907375        -0.143845
 H        -2.807466         1.098625         2.512359
 H        -3.250981         1.927255         0.769804
 H        -3.351859        -0.252406        -0.294662
 H        -4.265837        -1.897427         1.291440
 H        -2.748554        -2.453494         0.418052
 H        -3.034229        -2.566628         3.208372
 H        -0.745604        -1.085582         3.827986
 H        -0.223258         0.752141         2.421312
 H         0.049063        -0.531087         1.310677
