19
Iteration:  3329charge 0 multiplicity 1
 O        -0.763857         0.711462        -0.192952
 C        -1.681748         0.442837         0.955745
 C        -2.974626         1.154745         1.222042
 C        -2.904288        -0.333304         0.696280
 C        -3.414230        -1.744111         1.533993
 C        -2.247638        -2.247628         2.438784
 O        -0.934724        -2.480054         1.950685
 C        -1.138916        -1.304944         2.756520
 C        -0.979657         0.089462         2.227122
 H        -1.013779         1.583734        -0.501363
 H        -3.237021         1.162585         2.252732
 H        -3.252900         1.916152         0.510265
 H        -3.237729        -0.560460        -0.278273
 H        -4.326766        -1.812319         2.120928
 H        -3.648211        -2.488129         0.672380
 H        -2.570002        -2.845599         3.309580
 H        -0.806776        -1.363990         3.765799
 H        -1.223697         0.847351         2.968338
 H         0.005522         0.255972         1.897745
