19
Iteration:  4988charge 0 multiplicity 1
 O        -1.037661         1.018402        -0.198217
 C        -1.616541         0.341596         0.880027
 C        -2.928779         0.791972         1.431674
 C        -2.856929        -0.408262         0.633638
 C        -3.167447        -1.671138         1.286943
 C        -2.376469        -2.076958         2.459033
 O        -1.047772        -2.520318         2.162011
 C        -1.247993        -1.200666         2.839382
 C        -0.726235        -0.078847         1.993386
 H        -0.847871         1.908520         0.218551
 H        -2.996920         0.652920         2.521988
 H        -3.353917         1.729124         0.924829
 H        -3.230001        -0.355332        -0.335786
 H        -4.223507        -1.589254         1.814393
 H        -3.419728        -2.491073         0.614423
 H        -2.767017        -2.373101         3.386149
 H        -0.802853        -0.988495         3.819494
 H        -0.677487         0.783824         2.622763
 H         0.135339        -0.532717         1.511580
