19
Iteration:  2927charge 0 multiplicity 1
 O        -1.057249         1.049339        -0.120414
 C        -1.581624         0.352125         0.980973
 C        -2.976898         0.892997         1.203779
 C        -2.778978        -0.576672         0.622766
 C        -3.374201        -1.575727         1.430399
 C        -2.325244        -2.017919         2.566981
 O        -1.129469        -2.448807         1.947463
 C        -1.095628        -1.320299         2.838908
 C        -0.713463        -0.069832         2.141677
 H        -0.193336         0.595755        -0.412826
 H        -3.320463         1.013454         2.270665
 H        -3.415235         1.730674         0.608371
 H        -2.924369        -0.379492        -0.399933
 H        -4.514183        -1.371917         1.752333
 H        -3.474452        -2.481513         0.848591
 H        -2.866314        -2.555771         3.299682
 H        -0.523677        -1.761288         3.755967
 H        -0.485629         0.715337         2.877799
 H         0.255384        -0.231834         1.553470
