19
Iteration:  3742
 O        -1.096563         1.166579        -0.135357
 C        -1.647154         0.398287         0.904244
 C        -2.952185         0.889058         1.373982
 C        -2.845856        -0.375233         0.490530
 C        -3.091627        -1.741397         1.225027
 C        -2.386030        -2.000457         2.561916
 O        -1.174600        -2.697751         2.399921
 C        -1.140574        -1.266529         2.843618
 C        -0.602922        -0.172664         1.861527
 H        -1.263824         2.132815         0.027792
 H        -3.370266         0.710669         2.338556
 H        -3.396984         1.627438         0.812505
 H        -3.173265        -0.274461        -0.615079
 H        -4.158506        -1.617728         1.452891
 H        -2.982684        -2.648800         0.643272
 H        -3.063141        -2.313905         3.344509
 H        -0.842454        -1.010389         3.840506
 H        -0.236839         0.720293         2.460112
 H         0.224937        -0.514724         1.155881
