19
Iteration:  2759charge 0 multiplicity 1
 O        -1.029284         1.245941        -0.040566
 C        -1.630984         0.428235         0.905742
 C        -3.114929         0.938238         1.178953
 C        -2.890848        -0.397738         0.542852
 C        -3.166537        -1.663342         1.397367
 C        -2.325812        -2.079144         2.514053
 O        -1.119818        -2.701598         2.318503
 C        -1.145262        -1.225093         2.847566
 C        -0.618189        -0.237074         1.876237
 H        -0.296308         0.702110        -0.477937
 H        -3.503183         0.922114         2.229624
 H        -3.420947         1.841524         0.747115
 H        -3.147853        -0.347020        -0.537580
 H        -4.260710        -1.585543         1.701882
 H        -3.389141        -2.459270         0.699138
 H        -2.926864        -2.289120         3.494405
 H        -0.710323        -1.172099         3.813589
 H         0.109667         0.381629         2.468767
 H         0.040698        -0.775228         1.086709
