19
Iteration:  3795charge 0 multiplicity 1
 O        -1.016544         0.944031        -0.138906
 C        -1.698508         0.388559         0.957839
 C        -2.962175         0.981731         1.400273
 C        -2.868184        -0.398353         0.650617
 C        -3.181968        -1.760859         1.208456
 C        -2.404714        -2.099895         2.421009
 O        -1.041347        -2.553461         2.313674
 C        -1.216559        -1.182675         2.809999
 C        -0.720287        -0.087652         1.949903
 H        -1.033739         1.920614        -0.138033
 H        -2.765448         1.066781         2.431592
 H        -3.310612         1.803277         0.894275
 H        -3.124320        -0.277868        -0.432811
 H        -4.226576        -1.892454         1.268025
 H        -2.678999        -2.477359         0.489575
 H        -2.956112        -2.607312         3.198747
 H        -0.892615        -0.946686         3.794654
 H        -0.086764         0.683972         2.527373
 H         0.027005        -0.527833         1.217395
