19
Iteration:  1403
 O        -0.937656         0.917978        -0.092950
 C        -1.668849         0.401192         0.986558
 C        -3.004283         0.890463         0.952876
 C        -2.873260        -0.570569         0.574172
 C        -3.384093        -1.647520         1.540158
 C        -2.304000        -2.106236         2.458782
 O        -0.940439        -2.428691         1.972599
 C        -1.160516        -1.300026         2.865720
 C        -0.796404         0.114240         2.254259
 H        -0.066408         1.131468         0.342682
 H        -3.705968         1.295942         1.694718
 H        -3.203248         1.611887         0.210162
 H        -3.121779        -0.890170        -0.456302
 H        -4.233762        -1.426001         2.132427
 H        -3.616136        -2.631370         1.113595
 H        -2.630709        -2.778878         3.187040
 H        -0.874747        -1.370040         3.959977
 H        -1.084600         0.886561         2.994077
 H         0.291652         0.055551         1.963487
