19
Iteration:  4230
 O        -0.940397         1.003327        -0.109743
 C        -1.624584         0.320264         0.944864
 C        -3.091604         0.947144         1.310581
 C        -2.933743        -0.379986         0.642669
 C        -3.312715        -1.700643         1.261283
 C        -2.335821        -2.082693         2.417671
 O        -0.921526        -2.502451         2.261648
 C        -1.215792        -1.266469         2.868975
 C        -0.656105        -0.143535         1.910713
 H        -1.061810         1.913515        -0.289293
 H        -3.364159         1.023722         2.322871
 H        -3.310975         1.818737         0.669284
 H        -3.235669        -0.319121        -0.371004
 H        -4.306896        -1.624434         1.808523
 H        -3.564320        -2.538813         0.669764
 H        -2.763639        -2.370949         3.378414
 H        -1.026133        -1.137705         3.969245
 H        -0.242862         0.722562         2.511577
 H         0.123305        -0.744339         1.436949
