19
Iteration:  3789charge 0 multiplicity 1
 O        -0.991577         0.957682        -0.119285
 C        -1.720906         0.447329         0.897346
 C        -2.991444         0.967503         1.394185
 C        -2.888761        -0.403035         0.663832
 C        -3.115357        -1.785048         1.193566
 C        -2.370491        -2.081675         2.450641
 O        -1.086554        -2.598009         2.334553
 C        -1.220180        -1.192872         2.793984
 C        -0.672309        -0.080464         1.943370
 H        -1.076786         1.900547        -0.140800
 H        -2.860116         1.104383         2.511202
 H        -3.248117         1.917503         0.769589
 H        -3.411716        -0.243782        -0.300195
 H        -4.258432        -1.909817         1.301866
 H        -2.786005        -2.444956         0.408488
 H        -3.037025        -2.551078         3.215082
 H        -0.744092        -1.137862         3.834370
 H        -0.257174         0.777798         2.416571
 H         0.083293        -0.545136         1.320677
