19
Iteration:   176
 O        -0.887427         0.832746        -0.198520
 C        -1.746298         0.426370         0.876994
 C        -3.160137         0.806559         1.175320
 C        -2.851604        -0.526596         0.484453
 C        -3.061495        -1.847077         1.193706
 C        -2.383467        -1.961531         2.550402
 O        -0.970456        -2.444037         2.376740
 C        -1.150252        -1.125056         2.927480
 C        -0.831587         0.073901         2.126838
 H        -0.706508         1.817437        -0.109929
 H        -3.399141         0.783500         2.239207
 H        -3.788424         1.542184         0.571405
 H        -3.140151        -0.533309        -0.503546
 H        -4.192006        -2.021510         1.241099
 H        -2.550913        -2.605684         0.573505
 H        -2.952033        -2.404120         3.407799
 H        -1.036213        -0.991959         4.021816
 H        -1.038415         0.988720         2.726457
 H         0.159017         0.131333         1.777738
