19
Iteration:  4919charge 0 multiplicity 1
 O        -0.863776         0.928290        -0.146107
 C        -1.696803         0.402571         0.942651
 C        -3.111621         1.022173         1.243031
 C        -2.994532        -0.392064         0.634879
 C        -3.186045        -1.718170         1.387896
 C        -2.313724        -2.092462         2.576756
 O        -1.055915        -2.553721         2.102605
 C        -1.031044        -1.311238         2.758789
 C        -0.822099        -0.041073         2.054067
 H        -0.737061         1.879607         0.151466
 H        -3.302072         1.050848         2.339419
 H        -3.483284         1.891158         0.719088
 H        -3.155789        -0.267868        -0.484259
 H        -4.341861        -1.739998         1.495157
 H        -3.183742        -2.615482         0.709692
 H        -2.839967        -2.658549         3.376705
 H        -0.478491        -1.414770         3.676168
 H        -0.617703         0.754916         2.769731
 H         0.131071        -0.224885         1.579415
