19
Iteration:  4615
 O        -1.018771         0.976784        -0.229411
 C        -1.628987         0.381096         0.949133
 C        -2.992374         0.925412         1.348834
 C        -2.833263        -0.464339         0.599253
 C        -3.170590        -1.710207         1.291411
 C        -2.384962        -2.044363         2.531733
 O        -1.116393        -2.588479         2.158422
 C        -1.141652        -1.288757         2.827991
 C        -0.728561         0.025162         2.052268
 H        -0.828392         1.909887        -0.016091
 H        -3.123882         1.052310         2.472557
 H        -3.263354         1.862910         0.909014
 H        -3.249075        -0.444673        -0.389667
 H        -4.244819        -1.642877         1.472013
 H        -3.011165        -2.546299         0.633996
 H        -2.825613        -2.612278         3.299309
 H        -1.033768        -1.306893         3.947327
 H        -0.589908         0.869686         2.734442
 H         0.298733        -0.159864         1.675566
