19
Iteration:  2699charge 0 multiplicity 1
 O        -1.003871         1.238643        -0.166747
 C        -1.611575         0.349447         0.845863
 C        -2.923281         0.797067         1.480971
 C        -2.892737        -0.422613         0.589369
 C        -3.251464        -1.796639         1.229437
 C        -2.470896        -1.927525         2.510227
 O        -1.167766        -2.575571         2.324413
 C        -1.136544        -1.224523         2.828642
 C        -0.568201        -0.154490         1.906933
 H        -0.328288         0.827020        -0.750489
 H        -3.114420         0.627154         2.605260
 H        -3.466824         1.602334         1.000752
 H        -3.597921        -0.379987        -0.278017
 H        -4.372266        -1.772648         1.488411
 H        -2.875995        -2.614961         0.521114
 H        -3.071600        -2.228190         3.324196
 H        -0.794760        -1.209945         3.922248
 H        -0.216276         0.698363         2.471740
 H         0.239927        -0.506403         1.296338
