19
Iteration:  4346
 O        -0.989548         1.068849        -0.128857
 C        -1.717763         0.476738         0.930206
 C        -3.011322         0.932594         1.507748
 C        -2.981778        -0.378977         0.525890
 C        -3.168122        -1.794254         1.135947
 C        -2.323721        -2.017561         2.468520
 O        -1.048276        -2.616143         2.486956
 C        -1.239175        -1.119221         2.814489
 C        -0.605213        -0.294336         1.758577
 H        -0.835343         1.934763         0.227036
 H        -3.218589         0.966581         2.555235
 H        -3.517198         1.763971         0.927910
 H        -3.209684        -0.039138        -0.492610
 H        -4.184218        -2.058196         1.300692
 H        -2.730342        -2.487961         0.388232
 H        -2.912126        -2.217676         3.416383
 H        -0.891340        -1.122762         3.785490
 H         0.086597         0.434809         2.178252
 H        -0.017647        -0.988086         1.113151
