19
Iteration:  2060charge 0 multiplicity 1
 O        -0.968544         1.027010        -0.162853
 C        -1.650197         0.362620         0.939218
 C        -2.970997         0.994770         1.133827
 C        -2.859856        -0.392403         0.505306
 C        -3.262496        -1.511700         1.464735
 C        -2.325270        -2.082580         2.591991
 O        -1.103157        -2.652562         2.063764
 C        -1.022581        -1.469063         2.854702
 C        -0.790038        -0.038595         2.142349
 H        -1.574736         1.828120        -0.316596
 H        -3.498945         0.923289         2.179466
 H        -3.239663         1.770424         0.453541
 H        -3.150880        -0.666547        -0.460028
 H        -4.165703        -1.158097         2.085467
 H        -3.658682        -2.382396         0.967647
 H        -2.667056        -2.642045         3.420816
 H        -0.500365        -1.524877         3.832409
 H        -0.643027         0.748073         2.942105
 H         0.232915        -0.159352         1.704240
