19
Iteration:  4979
 O        -1.114528         1.014228        -0.194176
 C        -1.616333         0.317414         0.913242
 C        -2.880080         0.853750         1.410466
 C        -2.820611        -0.429883         0.514548
 C        -3.285079        -1.665273         1.317082
 C        -2.310567        -2.069066         2.474609
 O        -1.018067        -2.533899         2.193597
 C        -1.254936        -1.183111         2.816286
 C        -0.705549        -0.076494         2.048692
 H        -0.683790         1.884131         0.022212
 H        -3.037434         0.639387         2.422968
 H        -3.492458         1.725976         1.005140
 H        -3.222842        -0.178597        -0.456732
 H        -4.235929        -1.458206         1.930137
 H        -3.363997        -2.471170         0.575270
 H        -2.812507        -2.728023         3.181478
 H        -0.912491        -1.404854         3.848916
 H        -0.555662         0.798144         2.717827
 H         0.318872        -0.372033         1.633101
