19
Iteration:  1381charge 0 multiplicity 1
 O        -0.849318         0.892433        -0.085350
 C        -1.728700         0.375957         0.960128
 C        -3.121439         0.995065         0.920651
 C        -2.911141        -0.454387         0.641985
 C        -3.330781        -1.667294         1.450411
 C        -2.237330        -2.200999         2.540117
 O        -0.913707        -2.416632         2.035562
 C        -1.138157        -1.322418         2.886544
 C        -0.914082         0.069511         2.197428
 H         0.071440         0.681495         0.063322
 H        -3.629899         1.308892         1.831756
 H        -3.418713         1.805082         0.295696
 H        -3.016906        -0.766023        -0.420199
 H        -4.079071        -1.274431         2.068629
 H        -3.744365        -2.447240         0.800786
 H        -2.450608        -2.935168         3.251356
 H        -0.647659        -1.295678         3.904130
 H        -0.989696         0.915704         2.902157
 H         0.099967        -0.059157         1.744339
