19
Iteration:   722
 O        -0.869715         0.846730        -0.118533
 C        -1.645765         0.349219         0.926905
 C        -3.120794         0.923720         0.964044
 C        -2.788643        -0.485777         0.534318
 C        -3.208333        -1.680967         1.556831
 C        -2.205958        -2.111043         2.562143
 O        -0.988842        -2.454233         1.944494
 C        -1.099714        -1.233852         2.888970
 C        -1.074634         0.195771         2.330233
 H        -0.596549         0.127715        -0.725803
 H        -3.606095         1.085094         1.923962
 H        -3.424503         1.579781         0.190167
 H        -2.964991        -0.838405        -0.493699
 H        -4.246011        -1.418415         1.898949
 H        -3.378890        -2.568769         0.871864
 H        -2.617450        -2.781193         3.363612
 H        -0.681566        -1.279598         3.861341
 H        -1.572423         0.890386         3.091926
 H        -0.034147         0.533148         2.451710
