19
Iteration:  1935charge 0 multiplicity 1
 O        -0.895920         1.013578        -0.106311
 C        -1.698067         0.438467         0.899213
 C        -2.981032         0.962715         1.338644
 C        -2.924845        -0.343664         0.603883
 C        -3.251363        -1.675349         1.329514
 C        -2.367473        -2.082558         2.522762
 O        -1.042756        -2.530803         2.222155
 C        -1.190385        -1.289762         2.900026
 C        -0.716875        -0.188021         1.898644
 H        -1.467749         1.190255        -0.920435
 H        -3.239444         0.892238         2.391194
 H        -3.214494         1.770525         0.748101
 H        -3.245689        -0.426681        -0.438022
 H        -4.311693        -1.853966         1.498757
 H        -2.742256        -2.365954         0.566766
 H        -2.871830        -2.585719         3.427879
 H        -0.723779        -1.092214         3.853257
 H        -0.310971         0.674682         2.588546
 H         0.112583        -0.694883         1.342923
