19
Iteration:  2524
 O        -0.955260         1.061995        -0.148406
 C        -1.709653         0.385814         0.927270
 C        -3.024716         1.057944         1.280991
 C        -2.946003        -0.341225         0.688266
 C        -3.229143        -1.722447         1.309262
 C        -2.315982        -2.074852         2.545779
 O        -1.045122        -2.717380         2.243907
 C        -1.098508        -1.316704         2.762523
 C        -0.717957         0.015165         1.981317
 H        -0.667715         0.427129        -0.787701
 H        -3.112115         1.228973         2.354764
 H        -3.331008         1.836463         0.504526
 H        -3.226812        -0.285894        -0.396447
 H        -4.314520        -1.784746         1.537767
 H        -3.190654        -2.475243         0.537208
 H        -2.943805        -2.486314         3.292357
 H        -0.908475        -1.380092         3.878699
 H        -0.691608         0.724666         2.845596
 H         0.301339        -0.270743         1.582673
