19
Iteration:  4962
 O        -1.111272         1.017121        -0.263316
 C        -1.631718         0.395760         0.961541
 C        -3.006820         0.913928         1.339482
 C        -2.876647        -0.410568         0.602650
 C        -3.331598        -1.682919         1.278581
 C        -2.412518        -2.099238         2.404221
 O        -0.977206        -2.514876         2.190845
 C        -1.109111        -1.355735         2.928924
 C        -0.579941        -0.036131         2.086504
 H        -0.526311         1.772639         0.066759
 H        -3.358548         0.801802         2.405077
 H        -3.123910         1.817341         0.839268
 H        -2.966227        -0.565482        -0.523486
 H        -4.297664        -1.527043         1.728447
 H        -3.545338        -2.563563         0.631311
 H        -2.809814        -2.664987         3.297375
 H        -0.839387        -1.153757         3.954389
 H        -0.632687         0.817002         2.774587
 H         0.297452        -0.382062         1.572994
