19
Iteration:   747charge 0 multiplicity 1
 O        -0.843559         0.846483        -0.107013
 C        -1.721154         0.497271         0.957592
 C        -3.159669         0.972885         0.880851
 C        -2.855619        -0.490110         0.589825
 C        -3.342219        -1.685891         1.572243
 C        -2.231058        -2.190759         2.446228
 O        -0.842052        -2.459611         2.100665
 C        -1.070874        -1.278095         2.842405
 C        -1.035745         0.119975         2.219631
 H         0.005433         0.461430         0.107938
 H        -3.689041         1.244443         1.778313
 H        -3.447373         1.561278        -0.041728
 H        -2.966718        -0.794607        -0.460007
 H        -4.144978        -1.259320         2.244265
 H        -3.858345        -2.472498         1.003387
 H        -2.562984        -2.948723         3.180689
 H        -0.791061        -1.222004         3.875482
 H        -1.197091         0.743878         3.056535
 H         0.031400         0.245677         2.061969
