19
Iteration:  4833charge 0 multiplicity 1
 O        -0.919869         0.902732        -0.085557
 C        -1.742223         0.396447         0.966664
 C        -3.044545         1.004056         1.207882
 C        -2.970904        -0.383442         0.629131
 C        -3.321291        -1.706151         1.388209
 C        -2.307428        -2.086929         2.542814
 O        -1.010515        -2.568995         2.045234
 C        -1.041613        -1.309670         2.791851
 C        -0.733037         0.001081         2.029028
 H        -0.388681         1.637430         0.229565
 H        -3.521131         1.043692         2.173899
 H        -3.357989         1.790624         0.441858
 H        -3.338373        -0.556318        -0.447398
 H        -4.354923        -1.583148         1.766535
 H        -3.060628        -2.614681         0.858067
 H        -2.632844        -2.549124         3.460077
 H        -0.583637        -1.315075         3.774887
 H        -0.859102         0.785459         2.807483
 H         0.319799         0.120234         1.723460
