19
Iteration:  4102charge 0 multiplicity 1
 O        -0.945076         0.898518        -0.169016
 C        -1.611639         0.449061         0.902804
 C        -2.906076         1.018451         1.157159
 C        -2.911173        -0.398887         0.676698
 C        -3.380364        -1.711393         1.448847
 C        -2.324624        -2.143993         2.482207
 O        -0.920527        -2.506660         2.056342
 C        -1.206876        -1.358914         2.844045
 C        -0.846381        -0.019434         2.111407
 H        -1.063874         1.895160        -0.251920
 H        -3.222214         1.104399         2.197926
 H        -3.208595         1.843054         0.571207
 H        -3.020982        -0.487468        -0.365489
 H        -4.240803        -1.559301         2.104266
 H        -3.530455        -2.511161         0.702905
 H        -2.632470        -2.779250         3.338568
 H        -0.762425        -1.462512         3.861852
 H        -1.046991         0.683210         2.913234
 H         0.233908         0.069651         2.058954
