19
Iteration:   915
 O        -0.892476         1.045572        -0.189887
 C        -1.669285         0.339121         0.819440
 C        -3.074579         0.802855         1.195313
 C        -2.870262        -0.572883         0.504800
 C        -3.172579        -1.757811         1.319457
 C        -2.403764        -1.986467         2.612907
 O        -1.094743        -2.414565         2.226253
 C        -1.064422        -1.233410         2.945858
 C        -0.757002        -0.028304         2.100922
 H        -1.370731         1.891290        -0.269534
 H        -3.168577         0.625332         2.254772
 H        -3.563176         1.771879         0.799004
 H        -2.923628        -0.487020        -0.588807
 H        -4.273117        -1.715405         1.605663
 H        -2.915922        -2.720508         0.865857
 H        -2.997723        -2.512714         3.351822
 H        -0.967973        -1.411462         4.053145
 H        -0.656463         0.891026         2.606766
 H         0.184684        -0.094056         1.570264
