19
Iteration:  1588charge 0 multiplicity 1
 O        -1.080475         1.109564        -0.113811
 C        -1.669106         0.395544         0.920952
 C        -3.062947         0.942518         1.148456
 C        -2.803389        -0.461716         0.522577
 C        -3.220544        -1.675657         1.292586
 C        -2.396457        -2.126247         2.515221
 O        -1.001872        -2.621006         2.328874
 C        -1.195855        -1.219599         2.851702
 C        -0.608688        -0.083824         2.006995
 H        -0.095460         1.011093        -0.070472
 H        -3.506293         0.850576         2.094126
 H        -3.520363         1.639019         0.437170
 H        -2.987822        -0.526181        -0.551254
 H        -4.153579        -1.403045         1.860680
 H        -3.691793        -2.440761         0.751835
 H        -2.808451        -2.530928         3.362324
 H        -0.928018        -1.042567         3.932724
 H        -0.548290         0.736071         2.746080
 H         0.443178        -0.271357         1.711550
