19
Iteration:  2932charge 0 multiplicity 1
 O        -1.015041         1.046293        -0.125804
 C        -1.598517         0.326909         0.988206
 C        -2.961568         0.907675         1.207069
 C        -2.842127        -0.504599         0.629044
 C        -3.364092        -1.587837         1.461909
 C        -2.364941        -2.029604         2.508711
 O        -1.124658        -2.459959         1.953079
 C        -1.047777        -1.286820         2.862741
 C        -0.726594        -0.081494         2.144146
 H        -0.304814         0.541216        -0.490357
 H        -3.383978         0.906359         2.217813
 H        -3.529695         1.548502         0.548665
 H        -2.961429        -0.354945        -0.485688
 H        -4.342129        -1.432804         1.715143
 H        -3.361128        -2.533462         0.841174
 H        -2.711432        -2.668699         3.442396
 H        -0.596976        -1.772173         3.668650
 H        -0.564220         0.824926         2.767385
 H         0.257130        -0.269808         1.730627
