19
Iteration:  4277
 O        -1.087020         1.141187        -0.268264
 C        -1.608817         0.383734         0.935571
 C        -2.992398         0.894518         1.399285
 C        -2.860175        -0.433748         0.567678
 C        -3.119999        -1.728515         1.234924
 C        -2.453529        -1.942500         2.587733
 O        -1.163126        -2.716773         2.323200
 C        -1.110159        -1.250659         2.766204
 C        -0.604179        -0.116318         1.972472
 H        -0.668634         1.968116         0.072450
 H        -3.124424         0.955989         2.517447
 H        -3.671650         1.480401         0.798221
 H        -3.334751        -0.328054        -0.433788
 H        -4.233950        -1.897649         1.268696
 H        -2.827005        -2.615126         0.692984
 H        -2.946430        -2.421208         3.413854
 H        -0.626667        -0.977258         3.716692
 H        -0.564427         0.671443         2.825846
 H         0.389238        -0.219493         1.496787
