19
Iteration:  4678
 O        -1.055465         0.949201        -0.223304
 C        -1.693534         0.405589         0.995988
 C        -3.075941         0.995407         1.205267
 C        -2.827188        -0.392401         0.577914
 C        -3.241318        -1.640792         1.335118
 C        -2.375811        -2.055590         2.497347
 O        -0.959706        -2.557307         2.154127
 C        -1.101138        -1.379106         2.857827
 C        -0.700260        -0.078377         2.147460
 H        -1.002711         1.918540         0.023811
 H        -3.458666         0.939210         2.231578
 H        -3.258181         1.829635         0.602333
 H        -2.863093        -0.429800        -0.479518
 H        -4.226496        -1.565359         1.814856
 H        -3.430357        -2.473821         0.604958
 H        -2.869143        -2.674868         3.275479
 H        -0.899429        -1.325814         3.948525
 H        -0.396317         0.799059         2.827812
 H         0.234746        -0.457981         1.665650
