19
Iteration:  2689charge 0 multiplicity 1
 O        -1.019479         1.160036        -0.195586
 C        -1.593572         0.416741         0.870943
 C        -2.916449         0.780968         1.500169
 C        -2.953298        -0.381285         0.611079
 C        -3.232443        -1.758050         1.146284
 C        -2.458359        -1.972261         2.536654
 O        -1.121498        -2.515776         2.346647
 C        -1.175593        -1.244951         2.816021
 C        -0.639366        -0.163799         1.896850
 H        -0.272598         0.656627        -0.660966
 H        -2.679581         0.682735         2.582028
 H        -3.470143         1.685349         1.269562
 H        -3.241281        -0.073741        -0.445303
 H        -4.317695        -2.082132         1.361521
 H        -3.044942        -2.631848         0.465791
 H        -2.812501        -2.339428         3.438999
 H        -0.823268        -1.173611         3.887669
 H        -0.230175         0.688007         2.440890
 H         0.170072        -0.745508         1.526367
