19
Iteration:  2916charge 0 multiplicity 1
 O        -1.081682         1.051508        -0.118665
 C        -1.629453         0.401080         1.009178
 C        -2.989447         0.871944         1.217269
 C        -2.711127        -0.508992         0.566956
 C        -3.355601        -1.652871         1.457533
 C        -2.446725        -2.013964         2.574954
 O        -1.140548        -2.489308         1.944580
 C        -1.086807        -1.347710         2.804058
 C        -0.642118        -0.022025         2.101222
 H        -0.181155         0.736523        -0.251400
 H        -3.247692         0.916183         2.291533
 H        -3.057533         1.775572         0.574177
 H        -2.879699        -0.762920        -0.436299
 H        -4.287875        -1.155025         1.971788
 H        -3.611475        -2.546814         0.912771
 H        -2.752527        -2.718430         3.337180
 H        -0.617439        -1.278088         3.843390
 H        -0.462947         0.725842         2.888335
 H         0.381408        -0.320825         1.687831
