19
Iteration:  2481
 O        -0.942954         0.817580        -0.182773
 C        -1.579389         0.349610         0.962850
 C        -3.011702         0.970830         1.386852
 C        -2.913100        -0.351780         0.670572
 C        -3.291969        -1.700746         1.276377
 C        -2.372101        -2.089908         2.480395
 O        -0.991332        -2.452741         2.043486
 C        -1.227338        -1.236469         2.866864
 C        -0.705218         0.032441         2.132254
 H        -1.303127         0.549334        -1.012497
 H        -3.253762         1.043442         2.440311
 H        -3.310190         2.017967         1.039237
 H        -3.263451        -0.468121        -0.403597
 H        -4.338951        -1.615685         1.601604
 H        -3.234545        -2.499827         0.550244
 H        -2.776137        -2.791508         3.263409
 H        -0.698106        -1.386762         3.843170
 H        -0.576519         1.016167         2.759626
 H         0.321564        -0.297710         1.649318
