19
Iteration:  1750charge 0 multiplicity 1
 O        -1.133958         1.230063        -0.172356
 C        -1.608834         0.415100         0.932150
 C        -2.999289         0.782010         1.354362
 C        -2.892456        -0.408654         0.419344
 C        -3.093389        -1.718696         1.214782
 C        -2.437540        -1.878963         2.536633
 O        -1.184422        -2.644818         2.514703
 C        -1.108710        -1.302938         2.891722
 C        -0.584669        -0.202906         1.797321
 H        -0.205329         1.445793         0.105787
 H        -3.433152         0.481647         2.254661
 H        -3.276507         1.816302         1.063556
 H        -3.155538        -0.354888        -0.614742
 H        -4.179147        -1.891743         1.438745
 H        -2.797753        -2.568423         0.544634
 H        -3.267155        -2.213616         3.271249
 H        -0.704232        -1.213237         3.905970
 H        -0.062730         0.641904         2.291245
 H         0.265573        -0.630985         1.329904
