19
Iteration:  4337charge 0 multiplicity 1
 O        -1.017920         1.100241        -0.145021
 C        -1.652192         0.365177         1.001087
 C        -3.055938         0.913476         1.442861
 C        -2.984700        -0.362842         0.602098
 C        -3.189593        -1.792515         1.069399
 C        -2.390211        -1.997982         2.508744
 O        -1.006811        -2.543232         2.458725
 C        -1.203160        -1.120592         2.821832
 C        -0.612639        -0.306629         1.771674
 H        -0.532042         1.880045         0.073016
 H        -3.147737         0.797563         2.479137
 H        -3.364288         1.947524         1.071471
 H        -3.130266        -0.124040        -0.436421
 H        -4.230613        -1.822930         1.306852
 H        -2.853842        -2.639695         0.403869
 H        -2.971704        -2.693991         3.191750
 H        -0.948139        -0.891158         3.887132
 H         0.127660         0.353748         2.117407
 H        -0.094131        -1.002701         1.100859
