19
Iteration:  3021
 O        -1.009014         0.845702        -0.131183
 C        -1.622613         0.285064         0.970981
 C        -2.981283         1.007661         1.281872
 C        -2.881136        -0.404421         0.741057
 C        -3.321291        -1.660253         1.383948
 C        -2.344425        -2.065505         2.425606
 O        -1.038970        -2.403123         1.940414
 C        -1.142396        -1.320068         2.805794
 C        -0.721549         0.022435         2.186394
 H        -0.432861         0.119006        -0.363815
 H        -3.155301         1.380343         2.286097
 H        -3.208457         1.830499         0.572406
 H        -3.051530        -0.427064        -0.334556
 H        -4.313879        -1.557293         1.780098
 H        -3.384051        -2.465542         0.593581
 H        -2.777684        -2.807431         3.245453
 H        -0.685799        -1.377463         3.791445
 H        -0.960688         0.843974         2.898029
 H         0.315570         0.093894         1.847056
