19
Iteration:  1870
 O        -1.193701         1.228125        -0.233383
 C        -1.569103         0.411406         0.887955
 C        -2.959098         0.848490         1.364808
 C        -2.763159        -0.383385         0.529570
 C        -3.145393        -1.682098         1.262142
 C        -2.400363        -2.013544         2.590599
 O        -1.198170        -2.663229         2.357596
 C        -1.162580        -1.257550         2.893260
 C        -0.642415        -0.226881         1.904430
 H        -0.274803         1.491386        -0.286731
 H        -3.190876         0.879505         2.437818
 H        -3.155505         1.656221         0.783516
 H        -3.133997        -0.288873        -0.457377
 H        -4.245119        -1.763968         1.367792
 H        -2.965957        -2.624485         0.594926
 H        -3.091256        -2.265175         3.457975
 H        -0.752112        -1.424501         3.878625
 H        -0.089060         0.635032         2.420287
 H         0.262899        -0.596255         1.443339
