19
Iteration:  2948
 O        -0.914722         0.995071        -0.089303
 C        -1.628213         0.361599         0.920082
 C        -3.039292         0.971079         1.245696
 C        -2.954368        -0.442468         0.595544
 C        -3.306154        -1.669061         1.431691
 C        -2.320710        -2.075038         2.555932
 O        -1.074961        -2.492330         1.979836
 C        -1.126084        -1.341045         2.814595
 C        -0.689231        -0.002769         2.108962
 H        -0.563314         0.258455        -0.614134
 H        -3.345075         1.082158         2.310965
 H        -3.081811         1.966032         0.758983
 H        -3.245236        -0.544474        -0.442051
 H        -4.305899        -1.523615         2.058474
 H        -3.523177        -2.496244         0.773267
 H        -2.839102        -2.729517         3.155774
 H        -0.721917        -1.297408         3.875876
 H        -0.726700         0.731935         2.915241
 H         0.360247        -0.023233         1.700305
