19
Iteration:  4003
 O        -0.986126         0.879475        -0.239210
 C        -1.684510         0.430258         0.973056
 C        -3.028224         0.995770         1.229650
 C        -2.862258        -0.424895         0.673720
 C        -3.323444        -1.578735         1.415134
 C        -2.379360        -2.133395         2.496020
 O        -0.843852        -2.482506         2.028820
 C        -1.144067        -1.424516         2.885683
 C        -0.860831        -0.019674         2.133660
 H        -0.103028         1.259294        -0.045579
 H        -3.438950         0.961376         2.198238
 H        -3.239090         1.703099         0.475596
 H        -2.894777        -0.442387        -0.461112
 H        -4.063585        -1.072258         1.994040
 H        -3.779834        -2.201084         0.621471
 H        -2.775944        -2.839136         3.228791
 H        -0.896610        -1.549141         3.919311
 H        -0.893195         0.837986         2.747013
 H         0.163317        -0.061325         1.815149
