19
Iteration:  1517
 O        -0.863218         0.814186        -0.067907
 C        -1.659892         0.405553         0.940910
 C        -3.005980         0.938229         1.243117
 C        -2.866706        -0.434307         0.538524
 C        -3.269841        -1.777170         1.304758
 C        -2.339140        -2.075891         2.447975
 O        -0.944080        -2.467233         2.151147
 C        -1.210168        -1.207927         2.839722
 C        -0.819987         0.121063         2.134016
 H        -1.465391         0.983109        -0.835953
 H        -3.218583         1.010746         2.284487
 H        -3.604433         1.650029         0.572277
 H        -3.070145        -0.349225        -0.526535
 H        -4.182868        -1.574361         1.779171
 H        -3.612245        -2.682316         0.808543
 H        -2.690122        -2.685766         3.361980
 H        -1.091400        -1.339555         3.888804
 H        -0.883591         0.886155         2.882610
 H         0.214657         0.005146         1.881435
