19
Iteration:  2032
 O        -0.873928         0.947148        -0.119837
 C        -1.687907         0.411207         0.979610
 C        -3.060862         0.960732         1.219663
 C        -2.827407        -0.432728         0.620262
 C        -3.401982        -1.644733         1.483844
 C        -2.349556        -2.077546         2.506960
 O        -1.063794        -2.525893         2.064517
 C        -1.158629        -1.343414         2.762119
 C        -0.609348        -0.048463         1.995139
 H        -0.737085         1.850154         0.283702
 H        -3.610525         0.933622         2.147084
 H        -3.370857         1.756126         0.544455
 H        -3.226834        -0.779382        -0.349333
 H        -4.266262        -1.304988         2.034439
 H        -3.616245        -2.509789         0.817007
 H        -2.642462        -2.668717         3.463469
 H        -0.965808        -1.258927         3.837733
 H        -0.285874         0.729573         2.693414
 H         0.282205        -0.301314         1.411314
