19
Iteration:  2119
 O        -0.790231         0.755368        -0.059555
 C        -1.603030         0.348852         0.964714
 C        -3.060726         0.995857         1.271025
 C        -3.014146        -0.388262         0.679278
 C        -3.349389        -1.642306         1.475955
 C        -2.294848        -2.058696         2.476007
 O        -1.026321        -2.359908         1.902303
 C        -1.117046        -1.267658         2.846411
 C        -0.782642        -0.097190         2.072944
 H        -1.166601         1.008204        -0.896855
 H        -3.323193         1.065540         2.311202
 H        -3.546108         1.924000         0.770399
 H        -3.105731        -0.390261        -0.465185
 H        -4.340427        -1.405507         1.962827
 H        -3.518712        -2.414630         0.702812
 H        -2.630986        -2.832192         3.282254
 H        -0.612514        -1.386926         3.816436
 H        -0.868579         0.697853         2.781317
 H         0.252756        -0.191285         1.629572
