19
Iteration:  3293charge 0 multiplicity 1
 O        -0.839961         0.741336        -0.082653
 C        -1.709999         0.337739         1.013154
 C        -3.041292         1.063859         1.124850
 C        -2.943691        -0.419550         0.607926
 C        -3.380350        -1.553423         1.518276
 C        -2.240326        -2.118313         2.439388
 O        -0.954924        -2.412194         1.893775
 C        -1.023179        -1.361829         2.863542
 C        -0.905867        -0.023652         2.229769
 H        -1.321504         1.281109        -0.735647
 H        -3.637357         1.185934         2.080465
 H        -3.240873         1.994519         0.448172
 H        -2.951520        -0.350371        -0.492321
 H        -4.322611        -1.379301         2.054222
 H        -3.469952        -2.402497         0.772394
 H        -2.557650        -2.825592         3.233301
 H        -0.753953        -1.474343         3.982427
 H        -0.831963         0.739802         3.068269
 H         0.155969        -0.049706         1.859558
