19
Iteration:   179charge 0 multiplicity 1
 O        -0.882782         0.834318        -0.174096
 C        -1.756693         0.402575         0.883215
 C        -3.152731         0.795841         1.186081
 C        -2.872341        -0.530180         0.480396
 C        -3.051885        -1.847122         1.182732
 C        -2.407770        -1.932803         2.544827
 O        -0.960009        -2.449489         2.379375
 C        -1.159855        -1.119592         2.893615
 C        -0.844305         0.090052         2.128160
 H        -0.754900         1.780126        -0.225551
 H        -3.318501         0.792935         2.292726
 H        -3.728089         1.570165         0.563374
 H        -3.064400        -0.499385        -0.585813
 H        -4.132509        -2.100368         1.291046
 H        -2.462378        -2.584787         0.643842
 H        -2.909387        -2.308674         3.448122
 H        -0.985544        -0.994034         4.004363
 H        -0.983473         0.929914         2.799587
 H         0.178653         0.036902         1.715294
