19
Iteration:  3531charge 0 multiplicity 1
 O        -0.999101         1.075133        -0.167290
 C        -1.680061         0.446722         0.909870
 C        -3.086055         0.956318         1.263787
 C        -2.856836        -0.372566         0.509907
 C        -3.292435        -1.678606         1.273557
 C        -2.363488        -2.057992         2.539270
 O        -1.046655        -2.675652         2.342324
 C        -1.097552        -1.306297         2.814994
 C        -0.569903        -0.135078         2.004419
 H        -1.042123         2.027361        -0.013758
 H        -3.396828         0.785894         2.347143
 H        -3.595864         1.793365         0.767050
 H        -3.239964        -0.325778        -0.443852
 H        -4.299757        -1.588193         1.728788
 H        -3.180029        -2.522796         0.509032
 H        -2.959433        -2.560599         3.318700
 H        -0.831399        -1.218383         3.885572
 H        -0.249201         0.529867         2.766081
 H         0.289876        -0.455801         1.362410
