19
Iteration:    15
 O        -0.834904         0.698722        -0.083635
 C        -1.776890         0.295813         0.983307
 C        -3.205719         0.878944         0.746125
 C        -2.858086        -0.621436         0.524806
 C        -3.270426        -1.726042         1.504583
 C        -2.144822        -2.104210         2.374937
 O        -0.745710        -2.252247         2.040685
 C        -1.258201        -1.061880         3.017584
 C        -1.058543         0.177238         2.343441
 H         0.081962         0.546963         0.343185
 H        -3.650939         0.925587         1.827620
 H        -3.287392         1.704755         0.008009
 H        -2.622253        -0.964526        -0.378005
 H        -3.920473        -1.255752         2.251161
 H        -3.856392        -2.485634         1.055516
 H        -2.524564        -2.760354         3.171087
 H        -1.274863        -1.224786         4.104501
 H        -1.465212         1.006222         3.037318
 H         0.095776         0.394204         2.134174
