19
Iteration:  2994
 O        -0.932330         0.860838        -0.263269
 C        -1.717303         0.413347         0.970461
 C        -2.991189         1.117163         1.271290
 C        -2.957616        -0.277907         0.648545
 C        -3.263230        -1.642717         1.411631
 C        -2.259365        -2.194187         2.413586
 O        -0.960543        -2.499917         2.049745
 C        -1.193989        -1.411424         2.862809
 C        -0.774450        -0.015908         2.265761
 H        -1.072555         0.074386        -0.757839
 H        -3.225760         1.270614         2.387910
 H        -3.246484         1.873971         0.570591
 H        -3.256299        -0.445450        -0.415099
 H        -4.371070        -1.569500         1.874850
 H        -3.298624        -2.371666         0.582928
 H        -2.707585        -2.746852         3.196621
 H        -0.663765        -1.347070         3.816498
 H        -0.847264         0.841799         2.971741
 H         0.269972        -0.122212         1.871679
