19
Iteration:  3636
 O        -1.151087         1.005168        -0.273740
 C        -1.626426         0.488315         0.907601
 C        -2.953841         0.946016         1.476767
 C        -2.894952        -0.330167         0.628820
 C        -3.033675        -1.658487         1.149408
 C        -2.411466        -2.038772         2.424400
 O        -1.042051        -2.638214         2.435158
 C        -1.270033        -1.251373         2.872456
 C        -0.629572        -0.233271         1.965276
 H        -1.040818         1.975455        -0.146654
 H        -3.161625         1.187654         2.528547
 H        -3.479967         1.533206         0.785035
 H        -3.286404        -0.118328        -0.430415
 H        -4.042010        -2.138025         1.132476
 H        -2.545657        -2.306143         0.386467
 H        -3.114068        -2.465124         3.130620
 H        -1.057515        -1.203202         3.924698
 H         0.041424         0.492728         2.513199
 H         0.015629        -0.808250         1.321376
