19
Iteration:   488charge 0 multiplicity 1
 O        -0.960323         0.946355        -0.083258
 C        -1.736636         0.319283         0.900772
 C        -3.138531         0.778927         1.171502
 C        -2.815792        -0.524377         0.492825
 C        -3.070819        -1.813454         1.232556
 C        -2.325691        -1.856025         2.523342
 O        -0.977408        -2.428223         2.345245
 C        -1.195541        -1.133370         3.000641
 C        -0.820301        -0.031675         1.991802
 H        -1.546603         1.267406        -0.801396
 H        -3.502821         0.888300         2.199306
 H        -3.337712         1.643554         0.648040
 H        -3.005223        -0.601712        -0.553990
 H        -4.188502        -2.018572         1.245387
 H        -2.602559        -2.617433         0.603648
 H        -2.838393        -2.343251         3.291911
 H        -0.809903        -0.960369         4.026022
 H        -0.724239         0.908083         2.635295
 H         0.207135        -0.235632         1.580864
