19
Iteration:  4303charge 0 multiplicity 1
 O        -1.145944         1.182596        -0.232006
 C        -1.600763         0.380318         0.883130
 C        -2.952386         0.842987         1.432715
 C        -2.861725        -0.353989         0.552932
 C        -3.129505        -1.791495         1.172933
 C        -2.394415        -1.977195         2.529990
 O        -1.135891        -2.732077         2.401890
 C        -1.162599        -1.174396         2.850823
 C        -0.648750        -0.122945         1.909258
 H        -0.316890         1.631026         0.012380
 H        -2.986727         0.681425         2.504306
 H        -3.305632         1.846440         1.115554
 H        -3.199778        -0.283709        -0.486372
 H        -4.154481        -1.757189         1.449577
 H        -3.125409        -2.716276         0.493761
 H        -3.028389        -2.453853         3.349505
 H        -0.863794        -0.856066         3.802195
 H        -0.332202         0.662806         2.537873
 H         0.218198        -0.513345         1.339733
