19
Iteration:  2345
 O        -0.867803         0.737972        -0.107405
 C        -1.651437         0.283023         0.992910
 C        -2.964941         1.052265         1.189055
 C        -2.960379        -0.455995         0.659550
 C        -3.404782        -1.667386         1.510068
 C        -2.297727        -2.079700         2.383886
 O        -1.048516        -2.368685         1.862492
 C        -1.130073        -1.295707         2.850429
 C        -0.747088         0.059240         2.219517
 H        -1.191134         1.585019        -0.482918
 H        -2.972320         1.198317         2.324121
 H        -3.359081         1.927147         0.600370
 H        -3.014942        -0.717658        -0.431938
 H        -4.196875        -1.406048         2.210249
 H        -3.693616        -2.563613         0.913767
 H        -2.653033        -2.819895         3.091280
 H        -0.659972        -1.657051         3.812730
 H        -0.637263         0.861320         3.054640
 H         0.322466         0.021436         1.966591
