19
Iteration:  1980
 O        -1.086833         0.943748        -0.288458
 C        -1.537685         0.369369         0.984229
 C        -2.937041         0.960469         1.393370
 C        -2.961153        -0.288346         0.639164
 C        -3.289495        -1.678168         1.215575
 C        -2.370039        -2.034875         2.498174
 O        -1.020826        -2.613539         2.232822
 C        -1.165703        -1.305002         2.785477
 C        -0.719415        -0.017040         2.107925
 H        -0.190478         0.492420        -0.470374
 H        -3.026634         0.958677         2.431726
 H        -3.283014         1.918116         0.956223
 H        -3.199057        -0.297546        -0.501026
 H        -4.312185        -1.596396         1.587091
 H        -3.001054        -2.505993         0.465475
 H        -2.869406        -2.689841         3.291903
 H        -0.690630        -1.256435         3.805853
 H        -0.849407         0.806539         2.950460
 H         0.307335        -0.098984         1.699884
