19
Iteration:   361
 O        -1.064788         1.109883        -0.271429
 C        -1.663806         0.390646         0.767724
 C        -3.000545         0.830619         1.350811
 C        -2.879256        -0.496083         0.468776
 C        -2.927478        -1.939854         1.097349
 C        -2.412622        -1.984867         2.480375
 O        -0.991255        -2.450932         2.662312
 C        -1.384766        -1.088359         2.977348
 C        -0.743041        -0.150635         1.913226
 H        -0.607429         1.908671         0.127432
 H        -3.037743         0.621697         2.482165
 H        -3.575727         1.595017         0.868737
 H        -3.359639        -0.386079        -0.441320
 H        -3.985845        -2.140535         1.144242
 H        -2.387061        -2.632102         0.439333
 H        -3.148082        -2.362968         3.323668
 H        -1.407995        -0.720038         4.037001
 H        -0.135703         0.714041         2.424933
 H         0.080549        -0.783456         1.495234
