19
Iteration:  4688charge 0 multiplicity 1
 O        -1.113472         0.990125        -0.228216
 C        -1.656857         0.532402         0.995599
 C        -3.051726         0.980492         1.169365
 C        -2.817521        -0.429646         0.567589
 C        -3.275267        -1.643738         1.370550
 C        -2.387040        -2.063186         2.522801
 O        -0.983680        -2.632619         2.148678
 C        -1.106011        -1.381395         2.933607
 C        -0.654053        -0.079352         2.125092
 H        -0.700030         1.895143        -0.353667
 H        -3.521126         1.104695         2.146236
 H        -3.294469         1.772315         0.520215
 H        -2.949220        -0.537782        -0.474108
 H        -4.377243        -1.624277         1.614262
 H        -3.118783        -2.423306         0.544441
 H        -2.875214        -2.793395         3.229257
 H        -0.489723        -1.522177         3.812515
 H        -0.729716         0.568144         3.049607
 H         0.392216        -0.059767         1.784688
