19
Iteration:  2294
 O        -0.824362         0.768206        -0.075741
 C        -1.706155         0.389901         0.962284
 C        -2.981698         1.102494         1.226704
 C        -3.012261        -0.321059         0.609563
 C        -3.370296        -1.571171         1.475034
 C        -2.196494        -2.115881         2.474607
 O        -1.007337        -2.611143         1.907225
 C        -1.051050        -1.414560         2.823057
 C        -0.866543         0.126472         2.176862
 H        -1.010351         0.223512        -0.822094
 H        -3.419458         1.376634         2.183968
 H        -3.457715         1.760509         0.579808
 H        -3.514122        -0.269481        -0.314830
 H        -4.252412        -1.421657         2.148445
 H        -3.559932        -2.369359         0.772729
 H        -2.627602        -2.699227         3.299327
 H        -0.502141        -1.557012         3.736468
 H        -0.953501         0.853690         2.979508
 H         0.232753         0.319829         1.965739
