19
Iteration:  1299
 O        -0.769554         0.810031        -0.055872
 C        -1.707919         0.407706         0.954522
 C        -3.182080         0.938200         1.109187
 C        -2.880529        -0.511325         0.555873
 C        -3.234816        -1.688152         1.388530
 C        -2.312954        -2.176937         2.543064
 O        -0.942298        -2.331550         2.097770
 C        -1.213016        -1.198983         2.911945
 C        -0.833370         0.043511         2.096213
 H        -1.054273         1.587677        -0.601136
 H        -3.587254         1.021392         2.140148
 H        -3.495745         1.533420         0.299532
 H        -3.137619        -0.607873        -0.493864
 H        -4.293029        -1.616495         1.808316
 H        -3.411094        -2.610779         0.841380
 H        -2.595702        -3.063106         3.223691
 H        -0.754420        -1.355326         3.866014
 H        -0.625993         0.934030         2.738152
 H         0.135389        -0.153456         1.616316
