19
Iteration:  2439charge 0 multiplicity 1
 O        -0.851927         1.004211        -0.113460
 C        -1.687319         0.347003         0.916069
 C        -2.985920         0.932172         1.262785
 C        -2.938327        -0.429411         0.556547
 C        -3.322191        -1.631574         1.496985
 C        -2.341067        -2.119065         2.486366
 O        -1.050198        -2.468793         2.016286
 C        -1.115784        -1.274908         2.816860
 C        -0.761700        -0.041454         2.157174
 H        -0.996334         0.287718        -0.789868
 H        -3.624578         0.917633         2.154783
 H        -3.300886         1.753981         0.564660
 H        -3.241924        -0.254388        -0.518518
 H        -4.260060        -1.450741         2.062710
 H        -3.375227        -2.541262         0.839994
 H        -2.676634        -2.852707         3.358765
 H        -0.486662        -1.416624         3.701916
 H        -0.712621         0.868002         2.820068
 H         0.344783        -0.173448         1.861351
