19
Iteration:   353charge 0 multiplicity 1
 O        -1.116062         1.138296        -0.281392
 C        -1.674361         0.380207         0.762704
 C        -2.923804         0.807198         1.334070
 C        -2.812782        -0.492244         0.509904
 C        -2.969466        -1.896941         1.061655
 C        -2.417686        -1.987080         2.483505
 O        -0.980641        -2.444745         2.709873
 C        -1.410533        -1.057993         2.966520
 C        -0.736389        -0.246397         1.907089
 H        -0.898798         1.970185         0.241612
 H        -3.004583         1.064055         2.462483
 H        -3.348014         1.638484         0.785175
 H        -3.393219        -0.435652        -0.428283
 H        -4.025437        -2.291713         1.020270
 H        -2.463928        -2.701883         0.519989
 H        -2.924682        -2.695868         3.135122
 H        -1.321563        -0.718459         4.008300
 H        -0.480551         0.699848         2.496477
 H         0.149190        -0.611922         1.422892
