19
Iteration:  3797charge 0 multiplicity 1
 O        -1.022184         0.944122        -0.153801
 C        -1.676330         0.373956         0.974940
 C        -2.950440         0.982754         1.405220
 C        -2.869801        -0.393598         0.646732
 C        -3.191841        -1.755147         1.202288
 C        -2.411395        -2.097022         2.423661
 O        -1.025607        -2.536490         2.305545
 C        -1.217412        -1.187671         2.818086
 C        -0.730207        -0.092830         1.943783
 H        -1.028214         1.891836        -0.116057
 H        -2.840537         1.054601         2.461630
 H        -3.388957         1.809427         0.912446
 H        -3.047411        -0.283773        -0.492512
 H        -4.271721        -1.926837         1.275510
 H        -2.725147        -2.464583         0.527900
 H        -2.921882        -2.627065         3.226731
 H        -0.979162        -0.948547         3.858569
 H        -0.099220         0.629086         2.549068
 H         0.034528        -0.535729         1.215011
