19
Iteration:  2349charge 0 multiplicity 1
 O        -0.863105         0.750245        -0.108194
 C        -1.639402         0.293001         1.034457
 C        -2.994647         1.007743         1.196211
 C        -2.963864        -0.441888         0.625194
 C        -3.392823        -1.649892         1.512675
 C        -2.337156        -2.077671         2.424015
 O        -1.024593        -2.355562         1.852755
 C        -1.110626        -1.284091         2.848933
 C        -0.767043         0.009908         2.190132
 H        -1.043511         1.647990        -0.409412
 H        -2.958410         1.147087         2.254322
 H        -3.188614         1.853648         0.571203
 H        -3.012823        -0.690008        -0.402749
 H        -4.138067        -1.445660         2.308046
 H        -3.755091        -2.458528         0.919323
 H        -2.705704        -2.807860         3.119586
 H        -0.673669        -1.644379         3.774587
 H        -0.775826         0.891136         2.876949
 H         0.327130        -0.007253         1.901910
