19
Iteration:  3501charge 0 multiplicity 1
 O        -0.898135         0.992976        -0.162493
 C        -1.661179         0.302479         0.839936
 C        -2.894678         0.956140         1.399698
 C        -2.912529        -0.406177         0.624797
 C        -3.228145        -1.754301         1.297482
 C        -2.377692        -2.042676         2.505881
 O        -1.035481        -2.493675         2.170112
 C        -1.254404        -1.212057         2.792846
 C        -0.735850        -0.110800         2.046756
 H        -1.351520         1.872935        -0.186437
 H        -3.009741         0.904701         2.516560
 H        -3.486855         1.659450         0.845827
 H        -3.442311        -0.272041        -0.277199
 H        -4.336520        -1.780537         1.654275
 H        -3.102289        -2.513848         0.544351
 H        -2.896127        -2.696360         3.227391
 H        -0.887508        -1.087709         3.868630
 H        -0.603143         0.668394         2.800763
 H         0.239117        -0.445869         1.607417
