19
Iteration:  1949
 O        -0.943744         1.014815        -0.192208
 C        -1.594482         0.384156         0.932690
 C        -3.019065         1.045542         1.366910
 C        -2.930515        -0.352304         0.670293
 C        -3.150680        -1.712283         1.252890
 C        -2.376348        -2.084914         2.532703
 O        -1.046660        -2.620939         2.238852
 C        -1.199864        -1.240132         2.822320
 C        -0.723627        -0.103820         2.008008
 H        -1.308040         0.606640        -0.968600
 H        -3.196957         1.223017         2.411958
 H        -3.495455         1.926666         0.790602
 H        -3.359064        -0.164877        -0.396599
 H        -4.252476        -1.651971         1.561786
 H        -3.171699        -2.552031         0.510176
 H        -2.903403        -2.758794         3.209796
 H        -0.917714        -1.382328         3.879996
 H        -0.351636         0.767426         2.625996
 H         0.148085        -0.457744         1.422565
