19
Iteration:  2919
 O        -1.085151         1.046884        -0.115428
 C        -1.625658         0.396131         0.993246
 C        -2.992062         0.876534         1.210199
 C        -2.700130        -0.533297         0.585801
 C        -3.382781        -1.630617         1.442063
 C        -2.386285        -1.999938         2.589229
 O        -1.138725        -2.470374         1.938230
 C        -1.105514        -1.369181         2.819207
 C        -0.651266        -0.026991         2.111462
 H        -0.152469         0.710063        -0.285736
 H        -3.211915         0.987549         2.323921
 H        -3.086147         1.738111         0.637356
 H        -2.944286        -0.716403        -0.493037
 H        -4.266435        -1.237504         1.885796
 H        -3.604721        -2.554399         0.867084
 H        -2.908923        -2.706376         3.335950
 H        -0.585194        -1.294206         3.785635
 H        -0.445183         0.677218         2.948363
 H         0.304951        -0.282588         1.624643
