19
Iteration:  1899
 O        -1.003843         1.131840        -0.131337
 C        -1.575103         0.373195         0.918902
 C        -2.980706         0.767952         1.363954
 C        -2.861213        -0.469606         0.534927
 C        -3.308033        -1.652819         1.325833
 C        -2.402727        -1.966394         2.493649
 O        -1.139393        -2.607285         2.344483
 C        -1.117142        -1.227412         2.775163
 C        -0.601850        -0.166393         1.857683
 H        -0.810379         2.061862         0.204460
 H        -3.385011         0.821717         2.397671
 H        -3.424551         1.642780         0.784924
 H        -3.173334        -0.428964        -0.476513
 H        -4.366932        -1.698260         1.568265
 H        -3.252787        -2.534010         0.677606
 H        -2.931438        -2.137651         3.439979
 H        -0.851212        -1.307446         3.822978
 H        -0.280748         0.677327         2.500080
 H         0.332717        -0.306299         1.247235
