19
Iteration:  4635charge 0 multiplicity 1
 O        -0.803078         1.018498        -0.175691
 C        -1.626202         0.305248         0.833604
 C        -2.986918         0.872526         1.385809
 C        -2.983888        -0.397140         0.629826
 C        -3.319455        -1.817524         1.364956
 C        -2.408889        -2.062209         2.486449
 O        -0.998143        -2.422812         2.139999
 C        -1.227158        -1.234308         2.844670
 C        -0.755782        -0.042695         2.003811
 H        -0.655326         2.013087        -0.052524
 H        -3.094749         0.734986         2.470235
 H        -3.676872         1.576923         0.962350
 H        -3.293708        -0.323132        -0.379333
 H        -4.333484        -1.716068         1.556494
 H        -3.303916        -2.663999         0.676405
 H        -2.690150        -2.613886         3.377338
 H        -0.688821        -1.314439         3.860970
 H        -0.513551         0.662643         2.887669
 H         0.177459        -0.281555         1.432252
