19
Iteration:  1529
 O        -0.827570         0.919481        -0.080002
 C        -1.672929         0.353401         0.954045
 C        -3.037726         0.876128         1.219263
 C        -2.884714        -0.541670         0.568352
 C        -3.289370        -1.729932         1.315431
 C        -2.324852        -2.044406         2.507508
 O        -1.021351        -2.471097         2.130599
 C        -1.186250        -1.167582         2.805966
 C        -0.810720         0.080671         2.177182
 H        -1.280606         0.869094        -0.946621
 H        -3.312963         0.768349         2.285577
 H        -3.258674         1.878148         0.783516
 H        -3.134300        -0.626837        -0.497327
 H        -4.268156        -1.585005         1.673666
 H        -3.125933        -2.468454         0.526056
 H        -2.957490        -2.611262         3.307679
 H        -0.569051        -1.122368         3.697226
 H        -0.790262         0.922071         2.829707
 H         0.169263        -0.026549         1.779064
