19
Iteration:  1014charge 0 multiplicity 1
 O        -1.055476         1.053930        -0.217062
 C        -1.672645         0.370215         0.886275
 C        -3.031985         0.790413         1.520903
 C        -2.919729        -0.459154         0.609953
 C        -2.983762        -1.939804         1.004685
 C        -2.500452        -1.926482         2.484942
 O        -1.074539        -2.542588         2.637696
 C        -1.229926        -1.062355         2.754802
 C        -0.580860        -0.109656         1.826925
 H        -0.689368         1.891675         0.192137
 H        -3.282720         0.788344         2.606172
 H        -3.415868         1.674907         1.098874
 H        -3.248860        -0.242416        -0.390173
 H        -4.000745        -2.346276         0.753327
 H        -2.287133        -2.534132         0.387088
 H        -3.257138        -1.937157         3.262024
 H        -1.334986        -0.647746         3.755526
 H        -0.130253         0.796431         2.231800
 H         0.158465        -0.498308         1.140663
