19
Iteration:  4160
 O        -1.044279         0.859386        -0.159399
 C        -1.726423         0.386656         1.039018
 C        -3.048515         0.952984         1.249068
 C        -2.838521        -0.449380         0.589474
 C        -3.265675        -1.653368         1.314757
 C        -2.330312        -2.057918         2.546571
 O        -1.068517        -2.520509         2.064015
 C        -1.070503        -1.287553         2.800384
 C        -0.669176         0.051036         2.125968
 H        -0.373159         1.398039         0.234086
 H        -3.517345         0.961142         2.252201
 H        -3.117870         1.848047         0.566106
 H        -2.885294        -0.496578        -0.530170
 H        -4.322832        -1.609868         1.537991
 H        -3.364982        -2.445783         0.457278
 H        -2.813861        -2.376655         3.565956
 H        -0.641118        -1.599258         3.737282
 H        -0.682674         0.780620         2.919566
 H         0.311900        -0.104705         1.615420
