19
Iteration:  4147
 O        -0.939811         0.853147        -0.157698
 C        -1.685318         0.369234         1.041475
 C        -3.107530         0.984317         1.262079
 C        -2.866464        -0.431677         0.567519
 C        -3.334755        -1.653312         1.404527
 C        -2.343650        -2.034225         2.454982
 O        -0.976327        -2.486069         2.073893
 C        -1.111989        -1.276065         2.794310
 C        -0.752625        -0.037926         2.107444
 H        -0.216897         1.480581         0.146622
 H        -3.560189         0.900420         2.232792
 H        -3.477857         1.893958         0.691737
 H        -2.895421        -0.508628        -0.490318
 H        -4.279198        -1.450641         1.893304
 H        -3.298105        -2.636306         0.821553
 H        -2.699445        -2.897355         3.098967
 H        -0.821928        -1.124830         3.831791
 H        -0.450380         0.753236         2.790247
 H         0.187771        -0.239600         1.547285
