19
Iteration:  2747charge 0 multiplicity 1
 O        -1.054415         1.306314        -0.084119
 C        -1.669765         0.474573         0.981976
 C        -3.140558         0.897487         1.207991
 C        -2.862541        -0.373818         0.478332
 C        -3.240871        -1.651145         1.326678
 C        -2.332042        -1.962266         2.564654
 O        -1.127965        -2.719391         2.341851
 C        -1.077781        -1.324923         2.908017
 C        -0.546496        -0.317724         1.847078
 H        -0.438181         0.820996        -0.615442
 H        -3.450237         0.972764         2.226363
 H        -3.347500         1.627588         0.457232
 H        -2.971159        -0.614492        -0.563203
 H        -4.173465        -1.389845         1.961104
 H        -3.139954        -2.557274         0.738293
 H        -2.981885        -2.533933         3.355558
 H        -0.873236        -1.282197         3.935899
 H        -0.063609         0.595079         2.279494
 H         0.194297        -0.834535         1.152019
