19
Iteration:  4339
 O        -1.008593         1.092208        -0.142964
 C        -1.665166         0.389130         0.996196
 C        -3.053394         0.926049         1.453695
 C        -2.997258        -0.382101         0.580522
 C        -3.184949        -1.795451         1.072268
 C        -2.373414        -2.000198         2.508047
 O        -1.012114        -2.562489         2.466227
 C        -1.214122        -1.101373         2.802579
 C        -0.612229        -0.316063         1.772220
 H        -0.570508         1.942236         0.099573
 H        -3.147022         0.850971         2.537205
 H        -3.390183         1.902941         1.060306
 H        -3.107064        -0.044229        -0.434097
 H        -4.282071        -1.834807         1.327365
 H        -2.799340        -2.611556         0.411444
 H        -2.938553        -2.628119         3.238425
 H        -0.897001        -0.978505         3.929751
 H         0.140129         0.382583         2.121181
 H        -0.073206        -1.004919         1.135520
