19
Iteration:  4082
 O        -0.918079         0.816613        -0.205400
 C        -1.676827         0.361702         1.003499
 C        -3.084920         0.999410         1.207441
 C        -2.833651        -0.378260         0.628129
 C        -3.255718        -1.649456         1.428480
 C        -2.328151        -2.045759         2.475549
 O        -1.089252        -2.586512         2.023793
 C        -1.016432        -1.341774         2.793829
 C        -0.781131         0.123557         2.256695
 H        -1.247602         1.713836        -0.360279
 H        -3.562781         1.198083         2.175487
 H        -3.400508         1.690167         0.411243
 H        -2.998742        -0.353092        -0.394420
 H        -4.247542        -1.526208         1.835896
 H        -3.357642        -2.546909         0.709376
 H        -2.813402        -2.878864         3.061774
 H        -0.539603        -1.676916         3.683260
 H        -0.861507         0.812110         3.050413
 H         0.278123         0.136519         2.021789
