19
Iteration:  2391charge 0 multiplicity 1
 O        -0.946320         0.934395        -0.161236
 C        -1.699301         0.516876         0.982834
 C        -3.048910         0.953197         1.063760
 C        -2.916196        -0.416857         0.657559
 C        -3.299964        -1.620819         1.523366
 C        -2.290689        -2.132561         2.523529
 O        -1.098183        -2.606771         1.981912
 C        -1.043890        -1.397357         2.791863
 C        -0.767658         0.022348         2.122336
 H        -0.079579         1.134368         0.150898
 H        -3.534342         1.174748         2.040664
 H        -3.094838         1.844862         0.459870
 H        -2.883088        -0.508743        -0.398162
 H        -4.032235        -1.097934         2.129974
 H        -3.743633        -2.425190         1.011442
 H        -2.626115        -2.617567         3.346706
 H        -0.688814        -1.540358         3.865792
 H        -0.781854         0.628727         3.139659
 H         0.373152         0.150801         1.941198
