19
Iteration:  3884charge 0 multiplicity 1
 O        -0.949596         0.994765        -0.090557
 C        -1.657664         0.416414         0.961886
 C        -3.101520         1.000494         1.140252
 C        -2.871551        -0.436928         0.574744
 C        -3.294521        -1.641090         1.401490
 C        -2.249700        -2.060625         2.540962
 O        -1.083048        -2.610698         2.087493
 C        -1.092905        -1.273821         2.943110
 C        -0.754780        -0.098160         2.031087
 H        -0.820576         1.937028         0.159606
 H        -3.540808         0.903630         2.055277
 H        -3.289549         1.850895         0.446992
 H        -3.246101        -0.663318        -0.502524
 H        -4.305383        -1.545258         1.780341
 H        -3.118821        -2.547430         0.655227
 H        -2.881271        -2.644436         3.219278
 H        -0.414352        -1.485495         3.722533
 H        -0.368586         0.772203         2.697297
 H         0.181958        -0.509100         1.510758
