19
Iteration:  4874charge 0 multiplicity 1
 O        -1.086572         0.907113        -0.190084
 C        -1.589847         0.387173         0.960834
 C        -2.954020         0.921633         1.320122
 C        -2.744104        -0.465023         0.539566
 C        -3.328083        -1.602243         1.400372
 C        -2.322140        -2.159888         2.512297
 O        -0.996079        -2.441987         2.041532
 C        -1.223044        -1.244421         2.866416
 C        -0.728307        -0.054302         2.128418
 H        -1.070876         1.919752        -0.172320
 H        -3.380612         0.769105         2.224209
 H        -3.374200         1.776615         0.715237
 H        -2.880197        -0.547647        -0.608202
 H        -4.301947        -1.568730         2.126971
 H        -3.759502        -2.152160         0.507417
 H        -2.698090        -2.934675         3.273316
 H        -0.786637        -1.489686         3.776138
 H        -0.583965         0.746525         2.859001
 H         0.240345        -0.267165         1.749754
