19
Iteration:  1494
 O        -0.811056         0.776877        -0.217931
 C        -1.687222         0.400853         0.955171
 C        -3.093495         0.987540         1.144917
 C        -2.958147        -0.375588         0.642259
 C        -3.248392        -1.643515         1.358499
 C        -2.264351        -2.190211         2.408665
 O        -0.862771        -2.426342         2.165502
 C        -1.236376        -1.236744         2.944177
 C        -0.888119         0.031679         2.211054
 H        -1.408642         1.403617        -0.676703
 H        -3.394415         1.167532         2.134158
 H        -3.393117         1.874780         0.431953
 H        -3.145153        -0.507828        -0.404502
 H        -4.215170        -1.694833         1.702447
 H        -3.479714        -2.348924         0.550380
 H        -2.653739        -3.049004         3.078859
 H        -0.876631        -1.547527         3.849089
 H        -0.841550         0.821331         2.965040
 H         0.120874        -0.325237         2.049056
