19
Iteration:  1484charge 0 multiplicity 1
 O        -0.871497         0.752962        -0.151139
 C        -1.664728         0.431665         0.944500
 C        -3.008865         1.047164         1.102045
 C        -3.019659        -0.359633         0.547373
 C        -3.240312        -1.713181         1.372986
 C        -2.260901        -2.201995         2.484425
 O        -0.853455        -2.432268         2.094471
 C        -1.251897        -1.316319         2.948860
 C        -0.929120         0.061014         2.258245
 H        -1.237813         1.576495        -0.572752
 H        -3.254534         1.234731         2.101215
 H        -3.320696         1.802680         0.289848
 H        -3.127292        -0.348905        -0.523288
 H        -4.141829        -1.630773         1.914305
 H        -3.227099        -2.572494         0.708741
 H        -2.651429        -2.965073         3.273427
 H        -0.877473        -1.262949         3.923253
 H        -0.677949         0.889898         2.871019
 H         0.032994        -0.154549         1.836493
