19
Iteration:   977charge 0 multiplicity 1
 O        -1.111892         1.206288        -0.309900
 C        -1.645586         0.338011         0.869221
 C        -3.078244         0.812047         1.331522
 C        -2.835198        -0.366338         0.435841
 C        -3.079862        -1.754596         1.141172
 C        -2.378668        -2.067403         2.599384
 O        -0.929128        -2.558484         2.583582
 C        -1.345171        -1.215842         2.976007
 C        -0.677642        -0.168467         1.877057
 H        -0.471318         1.843995         0.077083
 H        -3.434274         0.741344         2.371333
 H        -3.361144         1.770592         0.743305
 H        -2.981539        -0.365900        -0.668451
 H        -4.184066        -1.805722         1.363492
 H        -2.860436        -2.533514         0.385863
 H        -2.863669        -2.582488         3.457337
 H        -1.271615        -0.971722         4.015177
 H        -0.061146         0.625736         2.471341
 H         0.029944        -0.921123         1.464844
