19
Iteration:   676charge 0 multiplicity 1
 O        -0.682849         0.703258        -0.021636
 C        -1.792248         0.398085         1.039556
 C        -3.171471         0.868480         0.970888
 C        -2.823716        -0.574181         0.602624
 C        -3.282981        -1.707393         1.519376
 C        -2.166918        -2.084975         2.426341
 O        -0.950215        -2.250007         1.961718
 C        -1.230005        -1.146500         2.933250
 C        -0.977550         0.119137         2.194594
 H        -1.193420         0.832244        -0.811371
 H        -3.825960         0.887509         1.869054
 H        -3.462051         1.561085         0.186877
 H        -2.897291        -0.692869        -0.471509
 H        -4.195458        -1.555097         2.140340
 H        -3.537549        -2.539941         0.795834
 H        -2.524475        -2.876185         3.103005
 H        -0.676333        -1.342773         3.909782
 H        -0.926555         1.057513         2.907430
 H         0.124462         0.039804         1.908422
