19
Iteration:  1566charge 0 multiplicity 1
 O        -0.992499         1.151882        -0.092337
 C        -1.677533         0.397910         0.949075
 C        -3.051936         0.866561         1.106671
 C        -2.787470        -0.525673         0.526307
 C        -3.230126        -1.694746         1.369302
 C        -2.402478        -2.014533         2.541092
 O        -1.075690        -2.560136         2.203489
 C        -1.115698        -1.257893         2.873310
 C        -0.738679        -0.012376         2.087996
 H        -0.578348         0.509934        -0.668836
 H        -3.433982         0.888419         2.124379
 H        -3.241609         1.723005         0.479892
 H        -3.025208        -0.677411        -0.539591
 H        -4.331014        -1.735686         1.583584
 H        -3.270721        -2.676782         0.899358
 H        -2.772218        -2.469619         3.390865
 H        -0.593877        -1.324683         3.881630
 H        -0.393949         0.657230         2.884907
 H         0.178552        -0.370181         1.561185
