19
Iteration:  2523charge 0 multiplicity 1
 O        -0.953143         1.057941        -0.147833
 C        -1.716165         0.385011         0.919600
 C        -3.027647         1.059785         1.285722
 C        -2.946069        -0.338168         0.694573
 C        -3.219828        -1.726166         1.300772
 C        -2.324744        -2.068284         2.547740
 O        -1.039321        -2.721971         2.238934
 C        -1.098508        -1.311380         2.765694
 C        -0.718357         0.011434         1.989266
 H        -0.704821         0.413094        -0.803227
 H        -3.101760         1.221036         2.336655
 H        -3.294532         1.817340         0.478678
 H        -3.239932        -0.263359        -0.361292
 H        -4.308178        -1.766031         1.542012
 H        -3.217349        -2.477806         0.529108
 H        -2.924191        -2.460886         3.277976
 H        -0.884117        -1.370454         3.878948
 H        -0.702017         0.715571         2.822348
 H         0.277312        -0.258802         1.623255
