19
Iteration:  1410charge 0 multiplicity 1
 O        -0.940979         0.909615        -0.084914
 C        -1.637932         0.365185         0.990277
 C        -3.036182         0.856566         0.978169
 C        -2.854723        -0.589981         0.600155
 C        -3.335163        -1.620662         1.492475
 C        -2.307662        -2.068877         2.529547
 O        -0.971252        -2.409713         1.963247
 C        -1.162300        -1.325350         2.838197
 C        -0.845902         0.109509         2.245447
 H        -0.051719         1.250942         0.087652
 H        -3.651594         1.010264         1.855753
 H        -3.144486         1.620811         0.103052
 H        -3.079414        -0.820066        -0.439218
 H        -4.215756        -1.101415         2.088018
 H        -3.620824        -2.441082         0.794026
 H        -2.542250        -2.888614         3.268716
 H        -0.793227        -1.415718         3.903553
 H        -0.983967         0.963039         2.995217
 H         0.241856         0.195495         2.008562
