19
Iteration:  3719charge 0 multiplicity 1
 O        -1.125161         1.207236        -0.094194
 C        -1.545540         0.414506         0.914717
 C        -3.012998         0.777446         1.351049
 C        -2.796816        -0.465141         0.590897
 C        -3.294049        -1.796778         1.194555
 C        -2.466553        -1.936005         2.498880
 O        -1.067708        -2.538747         2.385614
 C        -1.218036        -1.219940         2.816232
 C        -0.496208        -0.228786         1.835536
 H        -0.760080         2.036972         0.198986
 H        -3.228725         0.586062         2.378234
 H        -3.296044         1.721445         0.971635
 H        -3.121852        -0.536222        -0.475844
 H        -4.366916        -1.674844         1.337606
 H        -3.140031        -2.667536         0.519045
 H        -3.063908        -2.250161         3.353931
 H        -0.910625        -0.933913         3.812319
 H         0.176678         0.516679         2.433978
 H         0.158161        -0.942997         1.207549
