19
Iteration:  4420charge 0 multiplicity 1
 O        -1.140184         1.141249        -0.154375
 C        -1.572705         0.396635         0.923431
 C        -3.011369         0.781898         1.508311
 C        -2.801586        -0.363286         0.524625
 C        -3.215316        -1.739852         1.137761
 C        -2.446789        -2.006926         2.475356
 O        -1.096206        -2.531334         2.495519
 C        -1.155881        -1.186232         2.806077
 C        -0.543510        -0.297327         1.786717
 H        -0.480545         1.872079         0.043603
 H        -3.449219         0.490721         2.438424
 H        -3.550404         1.697581         1.095861
 H        -3.287869         0.038726        -0.371012
 H        -4.335486        -1.833358         1.142799
 H        -2.870574        -2.537248         0.471448
 H        -2.953988        -2.226490         3.375325
 H        -1.082037        -0.975030         3.840405
 H        -0.053503         0.614959         2.220861
 H         0.211544        -0.828671         1.162172
