19
Iteration:  3067
 O        -0.910104         1.059103        -0.059113
 C        -1.629205         0.325395         0.946353
 C        -2.998376         0.948299         1.158633
 C        -2.850267        -0.471136         0.612272
 C        -3.343826        -1.549172         1.583393
 C        -2.293819        -2.121201         2.503115
 O        -1.077985        -2.511163         1.971074
 C        -1.128339        -1.364613         2.734303
 C        -0.809102        -0.046428         2.111521
 H        -0.090134         0.585835        -0.261183
 H        -3.567447         1.002050         2.161207
 H        -3.390875         1.546749         0.360967
 H        -3.200478        -0.560403        -0.396648
 H        -4.156569        -1.051508         2.095733
 H        -3.806269        -2.350552         0.997833
 H        -2.607009        -2.795917         3.374896
 H        -0.590412        -1.398124         3.686277
 H        -0.931853         0.790800         2.816468
 H         0.191294        -0.095267         1.590058
