19
Iteration:  2543
 O        -1.036540         1.134237        -0.162331
 C        -1.662455         0.500592         0.911147
 C        -2.993264         0.949659         1.272653
 C        -2.911282        -0.391613         0.587114
 C        -3.251223        -1.704157         1.368424
 C        -2.420186        -2.081054         2.546844
 O        -1.061309        -2.610647         2.217905
 C        -1.113877        -1.287646         2.834640
 C        -0.642737        -0.150350         1.985529
 H        -0.229547         0.632087        -0.249337
 H        -3.249738         0.686266         2.250639
 H        -3.272112         1.810517         0.622488
 H        -3.166872        -0.434487        -0.441374
 H        -4.322166        -1.714744         1.700802
 H        -3.297033        -2.552187         0.615941
 H        -2.887144        -2.570270         3.360168
 H        -0.584539        -1.285855         3.817235
 H        -0.350559         0.619149         2.647453
 H         0.262146        -0.492168         1.528824
