19
Iteration:  4190
 O        -0.974362         1.017002        -0.330632
 C        -1.671861         0.410445         0.903138
 C        -3.007626         0.930425         1.314523
 C        -2.844262        -0.432981         0.615856
 C        -3.225246        -1.697248         1.382762
 C        -2.387683        -2.058810         2.565659
 O        -1.052079        -2.566367         2.121920
 C        -1.108566        -1.351648         2.823527
 C        -0.741767        -0.053487         2.172210
 H        -0.847235         1.905696         0.124886
 H        -3.245050         0.970355         2.356995
 H        -3.363405         1.776553         0.653038
 H        -3.109791        -0.537156        -0.418796
 H        -4.316469        -1.623538         1.550713
 H        -3.143722        -2.409726         0.548957
 H        -2.944884        -2.386110         3.460339
 H        -0.747779        -1.498800         3.867180
 H        -0.886228         0.790013         2.921902
 H         0.278009        -0.073573         1.749591
