19
Iteration:  4099charge 0 multiplicity 1
 O        -0.950841         0.889416        -0.179268
 C        -1.614544         0.456075         0.926775
 C        -2.924860         1.016974         1.154111
 C        -2.911395        -0.424584         0.680170
 C        -3.377198        -1.679534         1.410011
 C        -2.312246        -2.158793         2.500405
 O        -0.938890        -2.524504         2.040072
 C        -1.179897        -1.359114         2.825295
 C        -0.824640        -0.018715         2.165247
 H        -1.119110         1.824975        -0.287738
 H        -3.162772         1.171099         2.222277
 H        -3.285442         1.799651         0.524780
 H        -3.071636        -0.528946        -0.451581
 H        -4.317397        -1.481187         2.022631
 H        -3.468312        -2.434804         0.699716
 H        -2.603327        -2.613614         3.424253
 H        -0.779755        -1.352112         3.903007
 H        -1.079863         0.717193         3.046756
 H         0.271023         0.152020         1.985498
