19
Iteration:  3488charge 0 multiplicity 1
 O        -0.929162         0.884477        -0.164480
 C        -1.590939         0.396326         0.937177
 C        -2.972797         0.917721         1.408124
 C        -2.864089        -0.416202         0.698626
 C        -3.284929        -1.752189         1.267641
 C        -2.438987        -2.115786         2.477004
 O        -1.022616        -2.414121         2.109561
 C        -1.237331        -1.241996         2.833134
 C        -0.699472        -0.060753         1.997442
 H        -1.212682         1.743034        -0.454456
 H        -2.997403         1.134019         2.530346
 H        -3.339533         1.823897         0.869791
 H        -3.263742        -0.301929        -0.263105
 H        -4.465966        -1.733190         1.381036
 H        -2.988627        -2.560885         0.520154
 H        -2.771602        -2.472051         3.461821
 H        -1.029677        -1.358582         3.953867
 H        -0.600463         0.852132         2.539729
 H         0.367887        -0.292500         1.723452
