19
Iteration:  4488
 O        -1.166801         1.070889        -0.261674
 C        -1.608270         0.503282         0.928157
 C        -2.986701         0.953215         1.379732
 C        -2.818679        -0.341300         0.604558
 C        -3.101622        -1.746290         1.163257
 C        -2.351687        -2.022339         2.497478
 O        -1.153798        -2.719110         2.412188
 C        -1.130560        -1.235661         2.867987
 C        -0.640137        -0.199061         1.946887
 H        -0.896834         1.912556         0.084365
 H        -3.354777         0.846582         2.438651
 H        -3.462799         1.731428         0.843752
 H        -3.216040        -0.199727        -0.382610
 H        -4.178682        -1.950635         1.238633
 H        -2.746129        -2.410032         0.322125
 H        -2.978709        -2.328577         3.403707
 H        -1.018144        -1.097161         3.906097
 H        -0.157114         0.539666         2.661664
 H         0.189052        -0.529109         1.239029
