19
Iteration:  1623charge 0 multiplicity 1
 O        -0.954808         0.984457        -0.166967
 C        -1.637964         0.342991         0.854616
 C        -3.038355         0.952878         1.304423
 C        -2.911079        -0.383879         0.537739
 C        -3.199719        -1.747967         1.247947
 C        -2.355733        -2.090551         2.572384
 O        -0.998412        -2.503052         2.299805
 C        -1.276677        -1.182740         2.910938
 C        -0.685002        -0.127304         1.940806
 H        -0.679060         1.816694         0.295263
 H        -3.324524         0.823819         2.314839
 H        -3.621064         1.792972         0.850928
 H        -3.237828        -0.395185        -0.492272
 H        -4.288588        -1.643672         1.394549
 H        -2.913256        -2.537415         0.580630
 H        -2.908820        -2.549977         3.266733
 H        -0.893623        -1.208811         3.927776
 H        -0.457678         0.663899         2.659534
 H         0.236003        -0.536411         1.466857
