19
Iteration:  4645charge 0 multiplicity 1
 O        -0.760258         0.988859        -0.157835
 C        -1.665918         0.353446         0.881903
 C        -3.034083         0.866693         1.387299
 C        -2.996531        -0.474631         0.596949
 C        -3.364280        -1.760308         1.338816
 C        -2.384330        -2.075959         2.510500
 O        -0.951768        -2.411344         2.125819
 C        -1.194963        -1.231070         2.813513
 C        -0.748947        -0.055615         2.003112
 H        -0.843206         1.929253         0.170195
 H        -3.081533         0.814329         2.463238
 H        -3.373386         1.835218         1.050619
 H        -3.405390        -0.423133        -0.387679
 H        -4.338001        -1.648170         1.782883
 H        -3.337217        -2.641638         0.666280
 H        -2.784290        -2.781495         3.272995
 H        -1.129389        -1.175781         3.908686
 H        -0.418883         0.953044         2.446343
 H         0.184686        -0.482651         1.562871
