19
Iteration:  3638
 O        -1.162959         0.997639        -0.262195
 C        -1.623128         0.491411         0.909988
 C        -2.948433         0.965624         1.456153
 C        -2.894110        -0.320379         0.634194
 C        -3.009189        -1.664197         1.132730
 C        -2.389603        -2.039212         2.460577
 O        -1.055955        -2.645059         2.427060
 C        -1.289080        -1.278372         2.875753
 C        -0.632428        -0.222082         1.949367
 H        -1.062900         1.938728        -0.129333
 H        -3.156782         1.165128         2.572340
 H        -3.518091         1.573032         0.756095
 H        -3.226613        -0.063772        -0.367204
 H        -3.979456        -2.138079         1.119314
 H        -2.575276        -2.373025         0.340004
 H        -3.123508        -2.468091         3.153514
 H        -1.049263        -1.135344         3.936739
 H         0.036005         0.594144         2.508969
 H        -0.011063        -0.840088         1.271289
