19
Iteration:  3983charge 0 multiplicity 1
 O        -0.990384         0.770306        -0.143764
 C        -1.660475         0.421169         1.004804
 C        -3.109550         1.065696         1.189457
 C        -2.941131        -0.358556         0.597266
 C        -3.270218        -1.652237         1.418676
 C        -2.259575        -2.095097         2.392322
 O        -1.020098        -2.583788         2.061522
 C        -1.071488        -1.260677         2.792404
 C        -0.749070         0.034825         2.219111
 H        -0.242839         1.342292        -0.049670
 H        -3.456696         0.975983         2.236577
 H        -3.450420         1.891338         0.615163
 H        -3.156984        -0.466605        -0.454306
 H        -4.220622        -1.492276         1.923529
 H        -3.307377        -2.584880         0.688276
 H        -2.885465        -2.725317         3.085818
 H        -0.600698        -1.419662         3.724188
 H        -0.713728         0.828517         3.022340
 H         0.342663        -0.110073         1.965295
