19
Iteration:   208charge 0 multiplicity 1
 O        -0.989529         0.980824        -0.114492
 C        -1.720325         0.304509         0.898792
 C        -3.074761         0.823415         1.217725
 C        -2.854462        -0.541475         0.489307
 C        -3.026916        -1.878725         1.109988
 C        -2.377151        -1.994617         2.493434
 O        -1.059593        -2.397356         2.466478
 C        -1.236656        -1.070855         2.991509
 C        -0.659837         0.017302         2.008511
 H        -1.445673         1.306210        -0.901840
 H        -3.401588         0.849665         2.234782
 H        -3.496746         1.576721         0.494533
 H        -3.137702        -0.527372        -0.512528
 H        -4.093704        -2.252058         1.133824
 H        -2.437526        -2.630968         0.543814
 H        -2.915553        -2.363314         3.396565
 H        -1.132982        -0.904384         4.078968
 H        -0.643113         0.983291         2.634394
 H         0.298328        -0.194181         1.585352
