19
Iteration:  3809
 O        -1.045992         0.941531        -0.241331
 C        -1.623939         0.407805         0.948116
 C        -2.945438         0.959408         1.445235
 C        -2.898745        -0.349830         0.621871
 C        -3.220046        -1.757224         1.173080
 C        -2.391473        -2.038762         2.471904
 O        -0.963959        -2.454261         2.268275
 C        -1.281304        -1.248124         2.889623
 C        -0.644039        -0.192955         1.987045
 H        -0.929975         1.893868        -0.004631
 H        -3.449470         0.742441         2.363854
 H        -3.441468         1.789600         0.900407
 H        -3.006115        -0.246312        -0.509415
 H        -4.309059        -1.887562         1.453562
 H        -3.079478        -2.472467         0.397457
 H        -2.867635        -2.634623         3.269640
 H        -1.200351        -1.253466         3.996416
 H        -0.321147         0.699531         2.578128
 H         0.230603        -0.699433         1.498147
