19
Iteration:  4028
 O        -0.942282         0.955507        -0.174387
 C        -1.661746         0.354061         0.929048
 C        -2.954869         0.941646         1.145101
 C        -2.939760        -0.467013         0.606683
 C        -3.392199        -1.631668         1.549419
 C        -2.227373        -2.213443         2.431967
 O        -1.029825        -2.434775         1.985420
 C        -1.185192        -1.256736         2.874176
 C        -0.763384        -0.041353         2.162782
 H        -0.257386         1.484839         0.227264
 H        -3.151669         1.110801         2.246062
 H        -3.191650         1.691919         0.399253
 H        -3.067859        -0.464444        -0.420627
 H        -4.228205        -1.281426         2.169286
 H        -3.651662        -2.408022         0.707325
 H        -2.492829        -2.928972         3.311633
 H        -0.940947        -1.443489         3.912621
 H        -0.919080         0.788778         2.935329
 H         0.350899        -0.019641         1.948639
