19
Iteration:   788charge 0 multiplicity 1
 O        -0.920713         0.801947        -0.141842
 C        -1.680260         0.336964         0.957112
 C        -3.103245         0.901002         1.027176
 C        -2.751905        -0.580316         0.511568
 C        -3.367874        -1.620957         1.500835
 C        -2.226241        -2.131746         2.565594
 O        -0.946404        -2.253255         1.956114
 C        -1.145878        -1.262998         2.929110
 C        -0.967432         0.051101         2.274220
 H         0.009243         1.005373         0.046187
 H        -3.670769         1.015952         1.891332
 H        -3.378873         1.650544         0.254016
 H        -2.710903        -0.697364        -0.593094
 H        -4.258412        -1.329397         2.085955
 H        -3.670187        -2.494843         0.849557
 H        -2.500092        -2.874673         3.360721
 H        -0.715372        -1.425582         3.868033
 H        -1.004313         1.000395         2.911779
 H         0.092574         0.146075         1.919210
