19
Iteration:  4518
 O        -1.096904         1.065264        -0.199311
 C        -1.575041         0.406298         0.915458
 C        -2.919065         0.787460         1.404438
 C        -2.849975        -0.398950         0.539821
 C        -3.271104        -1.739839         1.200728
 C        -2.422217        -1.988225         2.498961
 O        -1.094253        -2.564311         2.321319
 C        -1.183366        -1.190816         2.845474
 C        -0.573324        -0.160713         1.981391
 H        -1.220423         2.038698        -0.024070
 H        -3.191175         0.544789         2.437638
 H        -3.284271         1.800990         1.211248
 H        -3.073316        -0.255906        -0.498662
 H        -4.385486        -1.928197         1.312024
 H        -2.951425        -2.500990         0.485599
 H        -2.900903        -2.354850         3.363200
 H        -1.056364        -1.059756         3.897883
 H        -0.256252         0.633356         2.647790
 H         0.308839        -0.428002         1.396524
