19
Iteration:   238charge 0 multiplicity 1
 O        -1.051531         1.266818        -0.262953
 C        -1.667354         0.446805         0.883979
 C        -3.050593         0.761221         1.227023
 C        -2.725025        -0.517082         0.470047
 C        -3.050149        -1.806069         1.225042
 C        -2.324050        -2.128669         2.536892
 O        -0.974536        -2.525629         2.685271
 C        -1.396874        -1.110364         2.895032
 C        -0.796970        -0.082621         1.894846
 H        -0.565455         0.669839        -0.930810
 H        -3.425417         0.417767         2.145557
 H        -3.489740         1.605029         0.792673
 H        -2.930637        -0.608403        -0.676962
 H        -4.087386        -1.828864         1.426944
 H        -3.029722        -2.682482         0.548641
 H        -2.931231        -2.402646         3.396770
 H        -1.429566        -0.754783         3.901383
 H        -0.244219         0.636002         2.540260
 H         0.086937        -0.563510         1.337421
