19
Iteration:  3556
 O        -1.140379         1.133498        -0.103192
 C        -1.682901         0.452245         0.967509
 C        -3.042588         0.886176         1.223367
 C        -2.749098        -0.444939         0.550515
 C        -3.171528        -1.675458         1.273943
 C        -2.385629        -1.990094         2.575424
 O        -1.150302        -2.672371         2.305680
 C        -1.070108        -1.277214         2.846821
 C        -0.624475        -0.174660         1.877595
 H        -0.544461         1.854502         0.218550
 H        -3.534352         0.889305         2.197090
 H        -3.111939         1.862400         0.710844
 H        -3.051384        -0.488913        -0.541614
 H        -4.271526        -1.695607         1.691427
 H        -2.958462        -2.421874         0.517347
 H        -3.050998        -2.348446         3.391435
 H        -0.785679        -1.237394         3.981640
 H        -0.048132         0.537683         2.509904
 H         0.118458        -0.554342         1.122271
