19
Iteration:    13
 O        -0.832871         0.714091        -0.082158
 C        -1.773093         0.292856         0.993261
 C        -3.195915         0.873512         0.729709
 C        -2.846608        -0.629799         0.541783
 C        -3.263035        -1.729239         1.493508
 C        -2.149651        -2.095136         2.402537
 O        -0.770417        -2.247708         2.030067
 C        -1.242417        -1.084392         3.008428
 C        -1.070747         0.187061         2.340009
 H         0.062998         0.417157         0.264146
 H        -3.635063         0.961717         1.788088
 H        -3.318526         1.702742         0.069047
 H        -2.664704        -0.938171        -0.389671
 H        -3.911880        -1.300642         2.255724
 H        -3.813944        -2.492289         1.011555
 H        -2.466796        -2.724761         3.226090
 H        -1.250003        -1.189292         4.085157
 H        -1.474571         0.962448         3.041563
 H         0.036031         0.452561         2.175777
