19
Iteration:  3723
 O        -1.119895         1.221278        -0.124062
 C        -1.553775         0.379057         0.947587
 C        -3.030641         0.801062         1.358642
 C        -2.768491        -0.508247         0.609265
 C        -3.277237        -1.776515         1.192559
 C        -2.453146        -1.930590         2.454576
 O        -1.096677        -2.558623         2.393810
 C        -1.208443        -1.212297         2.805139
 C        -0.509450        -0.217861         1.828083
 H        -0.871758         2.106141         0.268768
 H        -3.240952         0.767062         2.444297
 H        -3.307052         1.750071         0.905229
 H        -3.090158        -0.582415        -0.458061
 H        -4.350544        -1.691310         1.523954
 H        -3.044060        -2.567851         0.518981
 H        -2.971584        -2.220352         3.379679
 H        -0.932590        -1.012302         3.850406
 H         0.106958         0.393254         2.380029
 H         0.178906        -0.866789         1.339836
