19
Iteration:  3624
 O        -1.062304         1.070910        -0.310569
 C        -1.649080         0.394524         0.946042
 C        -2.993811         0.914590         1.478375
 C        -2.909446        -0.323872         0.650037
 C        -3.170420        -1.766792         1.106022
 C        -2.396514        -2.030902         2.413277
 O        -1.044119        -2.568462         2.449351
 C        -1.216364        -1.249654         2.884954
 C        -0.600309        -0.219357         1.923969
 H        -0.828771         2.017262        -0.132785
 H        -3.144448         0.779292         2.546839
 H        -3.280148         1.880663         1.132564
 H        -3.374602        -0.278989        -0.404487
 H        -4.298707        -1.861303         1.152852
 H        -2.707267        -2.418089         0.357323
 H        -2.950667        -2.506365         3.212153
 H        -1.117233        -0.997246         3.947064
 H        -0.126443         0.557811         2.566545
 H         0.162812        -0.746212         1.389372
