19
Iteration:   885charge 0 multiplicity 1
 O        -0.953654         0.868351        -0.173743
 C        -1.644806         0.426540         0.972036
 C        -2.996251         0.892861         1.120105
 C        -2.846283        -0.505671         0.626332
 C        -3.313177        -1.748374         1.418305
 C        -2.330303        -2.201958         2.438690
 O        -0.908038        -2.410268         2.244755
 C        -1.271027        -1.210322         2.765225
 C        -0.744378         0.070002         2.125806
 H        -1.269005         1.758882        -0.369604
 H        -3.368722         0.923123         2.113355
 H        -3.338622         1.713831         0.498642
 H        -2.839833        -0.548757        -0.471228
 H        -4.252525        -1.503577         1.850522
 H        -3.464535        -2.540541         0.637977
 H        -2.852363        -2.668286         3.278191
 H        -1.274102        -1.029514         3.976042
 H        -0.684125         0.935500         2.841402
 H         0.299392         0.036297         1.727365
