19
Iteration:   846charge 0 multiplicity 1
 O        -0.927364         0.747345        -0.148405
 C        -1.711901         0.335045         0.934607
 C        -3.118339         0.998717         1.032944
 C        -2.988470        -0.402836         0.521242
 C        -3.138781        -1.604861         1.436480
 C        -2.290673        -2.068919         2.525013
 O        -0.886487        -2.426188         2.117551
 C        -1.116581        -1.301928         2.918660
 C        -0.935952         0.028066         2.181956
 H        -0.411761         1.536567         0.182666
 H        -3.452559         1.213820         2.101209
 H        -3.316528         1.746549         0.296006
 H        -3.125750        -0.672223        -0.518965
 H        -4.153957        -1.802243         1.935348
 H        -3.025672        -2.461297         0.768609
 H        -2.606167        -2.863591         3.216453
 H        -0.828886        -1.390240         3.884582
 H        -1.144164         0.763386         2.960689
 H         0.102324         0.079050         1.867234
