19
Iteration:  3678
 O        -1.052017         1.117085        -0.163174
 C        -1.666216         0.384022         0.883332
 C        -2.989723         0.881430         1.419887
 C        -2.982298        -0.322376         0.613528
 C        -3.064429        -1.786613         1.102966
 C        -2.434898        -1.929960         2.512770
 O        -1.073114        -2.699125         2.464410
 C        -1.161008        -1.238674         2.798975
 C        -0.633465        -0.155559         1.835012
 H        -0.333256         1.655694         0.264028
 H        -3.099154         0.841211         2.490003
 H        -3.584752         1.609710         0.960088
 H        -3.508582        -0.103021        -0.378146
 H        -4.179340        -1.940470         1.254180
 H        -2.603447        -2.468641         0.427545
 H        -2.982334        -2.230483         3.390918
 H        -1.094891        -1.091052         3.871572
 H        -0.265460         0.626227         2.416101
 H         0.236146        -0.486479         1.307114
