19
Iteration:  1157
 O        -1.136844         1.041629        -0.296009
 C        -1.659052         0.512730         0.889148
 C        -3.013754         0.972733         1.359856
 C        -2.798209        -0.455131         0.568812
 C        -3.028247        -1.932624         1.148829
 C        -2.371710        -2.106943         2.439809
 O        -1.067813        -2.644703         2.615060
 C        -1.266494        -1.137775         2.839211
 C        -0.684281        -0.015136         1.946348
 H        -0.824210         1.984690        -0.150544
 H        -3.162515         1.085201         2.410219
 H        -3.363532         1.716314         0.594365
 H        -3.296669        -0.127307        -0.364858
 H        -4.134120        -2.001498         1.139056
 H        -2.748334        -2.806683         0.509688
 H        -2.995933        -2.425218         3.301023
 H        -1.050211        -0.940478         3.908677
 H        -0.088676         0.739562         2.606598
 H         0.197268        -0.544563         1.462007
