19
Iteration:  1632
 O        -0.945407         0.942664        -0.145078
 C        -1.672498         0.341823         0.862596
 C        -3.062316         0.917942         1.358157
 C        -2.881305        -0.398586         0.577080
 C        -3.118218        -1.785371         1.239884
 C        -2.419586        -2.062452         2.496113
 O        -1.090050        -2.454600         2.319325
 C        -1.211288        -1.187353         2.796780
 C        -0.679012        -0.105796         2.017505
 H        -0.869637         1.921317        -0.023304
 H        -3.146731         1.006824         2.371483
 H        -3.354241         1.820028         0.731389
 H        -3.320484        -0.227263        -0.385610
 H        -4.197879        -1.967374         1.451023
 H        -2.821986        -2.524846         0.557303
 H        -2.875255        -2.540917         3.329040
 H        -0.848404        -1.128038         3.855515
 H        -0.270820         0.771204         2.454804
 H         0.203767        -0.495679         1.513011
