19
Iteration:  3771charge 0 multiplicity 1
 O        -0.894988         1.122856        -0.243001
 C        -1.676827         0.380647         0.890658
 C        -3.045435         0.969798         1.414230
 C        -3.026838        -0.317525         0.611933
 C        -3.114901        -1.765261         1.215375
 C        -2.386922        -1.996249         2.506255
 O        -1.096595        -2.696532         2.374152
 C        -1.104556        -1.317355         2.850702
 C        -0.690495        -0.172154         1.922934
 H        -1.152865         2.037274        -0.246169
 H        -3.357868         0.899828         2.477323
 H        -3.664747         1.623790         0.770471
 H        -3.283122        -0.250894        -0.409130
 H        -4.155179        -2.029168         1.312320
 H        -2.519323        -2.507588         0.563648
 H        -2.966184        -2.309658         3.378385
 H        -0.921725        -0.929298         3.861895
 H        -0.414816         0.607341         2.697437
 H         0.258618        -0.261500         1.370265
