19
Iteration:  3389charge 0 multiplicity 1
 O        -0.962668         0.903949        -0.107051
 C        -1.656710         0.429732         1.027811
 C        -3.062157         0.899513         1.106869
 C        -2.805135        -0.496003         0.552575
 C        -3.367127        -1.604331         1.505455
 C        -2.386890        -2.108814         2.561914
 O        -1.013598        -2.429420         1.941673
 C        -1.079433        -1.338299         2.778233
 C        -0.769632        -0.029733         2.150652
 H        -0.175978         1.327317         0.309556
 H        -3.375092         1.046056         2.158302
 H        -3.541443         1.712360         0.474128
 H        -2.796127        -0.651270        -0.573122
 H        -4.169033        -1.036988         2.030194
 H        -3.676372        -2.334992         0.821076
 H        -2.516018        -2.681909         3.469881
 H        -0.766074        -1.528932         3.840244
 H        -0.709903         0.633503         3.021916
 H         0.272193        -0.014676         1.696863
