19
Iteration:  2480charge 0 multiplicity 1
 O        -0.940189         0.815607        -0.180469
 C        -1.574971         0.350570         0.973312
 C        -3.008237         0.970947         1.393836
 C        -2.910119        -0.359110         0.666039
 C        -3.295708        -1.704354         1.280671
 C        -2.362026        -2.087812         2.474235
 O        -0.996126        -2.442356         2.044411
 C        -1.231973        -1.234280         2.860461
 C        -0.703549         0.033896         2.123432
 H        -1.308674         0.542238        -0.993556
 H        -3.259064         1.024941         2.432001
 H        -3.335984         1.995631         0.991961
 H        -3.286953        -0.465713        -0.375808
 H        -4.344374        -1.623989         1.604096
 H        -3.270719        -2.507541         0.576162
 H        -2.773991        -2.738592         3.209220
 H        -0.708610        -1.414021         3.841457
 H        -0.585307         0.985321         2.780487
 H         0.303052        -0.315393         1.663318
