19
Iteration:  2285charge 0 multiplicity 1
 O        -0.820601         0.835150        -0.072853
 C        -1.670618         0.394568         0.955097
 C        -3.019932         1.038313         1.203219
 C        -3.091304        -0.346153         0.671912
 C        -3.395200        -1.573794         1.483359
 C        -2.296504        -2.115269         2.435391
 O        -0.976637        -2.608502         1.936253
 C        -0.999811        -1.376972         2.762952
 C        -0.801994         0.133238         2.192389
 H        -0.841064         0.052392        -0.604212
 H        -3.288253         1.404799         2.202415
 H        -3.047800         1.759165         0.400530
 H        -3.282715        -0.318512        -0.379336
 H        -4.316748        -1.325111         2.107539
 H        -3.713090        -2.497187         0.909040
 H        -2.669721        -2.762322         3.338840
 H        -0.491981        -1.608458         3.699736
 H        -1.119701         0.714951         3.043625
 H         0.242320         0.196799         1.826111
