19
Iteration:  2475charge 0 multiplicity 1
 O        -0.914709         0.816603        -0.161386
 C        -1.595848         0.361585         1.002860
 C        -2.981929         0.976832         1.409488
 C        -2.895481        -0.400493         0.656407
 C        -3.308879        -1.711248         1.321271
 C        -2.315940        -2.062432         2.413973
 O        -1.024702        -2.392978         2.049280
 C        -1.228347        -1.221456         2.833239
 C        -0.695475         0.026631         2.091848
 H        -1.418892         0.445045        -0.948954
 H        -3.273854         0.887876         2.492210
 H        -3.408547         1.717202         0.751064
 H        -3.337639        -0.343282        -0.335001
 H        -4.362334        -1.665117         1.672232
 H        -3.395710        -2.599014         0.612997
 H        -2.872454        -2.694312         3.185382
 H        -0.849467        -1.465439         3.810880
 H        -0.601185         0.751390         2.844916
 H         0.227827        -0.345872         1.774609
