19
Iteration:   272
 O        -1.106821         1.242456        -0.132801
 C        -1.658328         0.312802         0.857032
 C        -3.055828         0.725941         1.196078
 C        -2.924458        -0.586729         0.444241
 C        -3.085302        -1.917658         1.137788
 C        -2.357212        -1.856359         2.538673
 O        -1.051188        -2.475580         2.642554
 C        -1.185733        -1.086295         2.927674
 C        -0.653055        -0.169664         1.875442
 H        -0.245921         1.545817         0.284780
 H        -3.601538         0.781391         2.060268
 H        -3.258492         1.584420         0.513123
 H        -3.078851        -0.525614        -0.623352
 H        -4.108416        -2.215831         1.224189
 H        -2.461712        -2.580106         0.523030
 H        -3.067845        -1.983010         3.380903
 H        -1.122205        -0.920775         3.993871
 H        -0.181285         0.721243         2.408683
 H         0.088663        -0.644949         1.186642
