19
Iteration:  1509
 O        -0.846961         0.794741        -0.140884
 C        -1.648829         0.384168         0.928444
 C        -3.089955         1.005772         1.227663
 C        -2.859169        -0.423560         0.619224
 C        -3.286682        -1.728281         1.326146
 C        -2.314153        -2.122060         2.367429
 O        -0.916058        -2.429877         2.163862
 C        -1.230137        -1.280387         2.910776
 C        -0.814175         0.047138         2.161481
 H        -1.354202         1.185926        -0.907847
 H        -3.372400         1.003394         2.321376
 H        -3.531239         1.597761         0.487654
 H        -3.019235        -0.319749        -0.479240
 H        -4.205227        -1.492759         1.979457
 H        -3.383790        -2.641203         0.705853
 H        -2.761435        -2.821043         3.166214
 H        -1.128393        -1.010203         4.013247
 H        -0.904721         0.903016         2.834422
 H         0.204291         0.248343         1.834264
