19
Iteration:   404
 O        -1.133606         1.028397        -0.200335
 C        -1.698060         0.346438         0.937182
 C        -3.146853         0.789059         1.200272
 C        -2.845140        -0.504715         0.449596
 C        -2.932214        -1.845417         1.104908
 C        -2.391721        -1.793094         2.500161
 O        -1.067122        -2.537190         2.589340
 C        -1.148916        -1.128621         2.874557
 C        -0.677528        -0.090078         2.027915
 H        -0.570774         1.678729         0.258377
 H        -3.625024         0.682859         2.249744
 H        -3.557811         1.536124         0.568395
 H        -2.920839        -0.500160        -0.578222
 H        -3.937347        -2.205501         1.228507
 H        -2.455752        -2.691663         0.553570
 H        -3.050638        -1.917007         3.466088
 H        -1.008471        -1.056485         3.991741
 H        -0.247485         0.842089         2.435733
 H         0.067484        -0.419514         1.292798
