19
Iteration:   507
 O        -0.965476         0.978496        -0.154567
 C        -1.699434         0.408276         0.900169
 C        -3.138879         0.886201         1.115215
 C        -2.889904        -0.527166         0.506617
 C        -3.043500        -1.861169         1.229389
 C        -2.319246        -2.029952         2.591158
 O        -1.054872        -2.523415         2.332851
 C        -1.155603        -1.127093         2.901642
 C        -0.738542         0.130857         2.188840
 H        -1.418968         0.649429        -0.924256
 H        -3.535916         0.876032         2.128843
 H        -3.617445         1.575569         0.383864
 H        -3.089788        -0.676034        -0.632580
 H        -4.090004        -2.037040         1.452995
 H        -2.610664        -2.612243         0.594381
 H        -2.847982        -2.486624         3.422095
 H        -0.871695        -1.127008         3.930840
 H        -0.618937         1.142589         2.686759
 H         0.255476        -0.049432         1.735766
