19
Iteration:   483
 O        -0.942784         0.961627        -0.086456
 C        -1.695841         0.302564         0.885400
 C        -3.170643         0.773347         1.199278
 C        -2.835137        -0.527781         0.502013
 C        -3.096007        -1.804019         1.188284
 C        -2.358631        -1.907984         2.532119
 O        -0.966345        -2.378733         2.391329
 C        -1.159299        -1.117631         2.926691
 C        -0.814298        -0.068213         2.019780
 H        -1.576374         1.362090        -0.688902
 H        -3.492902         0.756291         2.243229
 H        -3.342616         1.723057         0.564148
 H        -2.957941        -0.671408        -0.622575
 H        -4.151529        -1.906600         1.383022
 H        -2.658251        -2.590476         0.595396
 H        -2.867857        -2.425719         3.412276
 H        -0.909454        -0.954274         3.973356
 H        -0.687917         0.949003         2.454487
 H         0.158325        -0.278757         1.593410
