19
Iteration:  4293
 O        -1.130642         1.194874        -0.266915
 C        -1.612725         0.455046         0.814613
 C        -2.939721         0.838954         1.422963
 C        -2.847260        -0.412426         0.592313
 C        -3.186126        -1.820062         1.235647
 C        -2.440977        -2.007524         2.508957
 O        -1.180671        -2.687523         2.416027
 C        -1.087080        -1.317113         2.839993
 C        -0.606823        -0.026231         1.919006
 H        -0.392804         1.651336         0.123376
 H        -3.130958         0.627507         2.450442
 H        -3.261904         1.852578         1.067919
 H        -3.143540        -0.310310        -0.441073
 H        -4.250706        -1.871901         1.413480
 H        -2.822548        -2.513483         0.405265
 H        -3.040023        -2.230340         3.448595
 H        -0.904621        -1.305401         3.910639
 H        -0.409954         0.772266         2.576700
 H         0.379180        -0.229221         1.472525
