19
Iteration:  1742
 O        -1.097923         1.227991        -0.106288
 C        -1.671241         0.389405         0.921499
 C        -3.032818         0.817571         1.326494
 C        -2.888437        -0.408261         0.396988
 C        -3.062467        -1.748413         1.204477
 C        -2.443999        -1.885625         2.554695
 O        -1.169465        -2.606529         2.481084
 C        -1.122900        -1.297873         2.874519
 C        -0.575216        -0.208286         1.802387
 H        -0.132756         1.217356         0.028258
 H        -3.106974         0.550671         2.442732
 H        -3.238235         1.799113         1.099119
 H        -3.239078        -0.529719        -0.635670
 H        -4.117610        -1.744198         1.539765
 H        -2.833737        -2.635393         0.699471
 H        -3.112127        -2.161787         3.390325
 H        -0.927704        -1.134754         3.955957
 H        -0.109182         0.591937         2.326337
 H         0.052241        -0.700371         1.007203
