19
Iteration:  3689
 O        -1.045450         1.163462        -0.133393
 C        -1.666870         0.365219         0.788971
 C        -3.035487         0.800857         1.485648
 C        -2.872455        -0.413721         0.578745
 C        -3.086556        -1.717560         1.186174
 C        -2.376360        -1.928601         2.442035
 O        -1.118867        -2.618606         2.431243
 C        -1.168874        -1.176133         2.855348
 C        -0.674419        -0.228452         1.837010
 H        -0.303500         1.626714         0.318933
 H        -3.129883         0.557760         2.530836
 H        -3.257956         1.763799         1.189155
 H        -3.335602        -0.441008        -0.465406
 H        -4.210303        -1.751321         1.284533
 H        -2.966736        -2.505890         0.496663
 H        -3.121528        -2.200227         3.173029
 H        -0.854551        -1.033434         3.886427
 H        -0.331713         0.615212         2.297572
 H         0.110820        -0.676216         1.256480
