19
Iteration:  4292charge 0 multiplicity 1
 O        -1.125705         1.196239        -0.269008
 C        -1.622081         0.452506         0.819885
 C        -2.936984         0.845306         1.421570
 C        -2.845840        -0.423068         0.593269
 C        -3.193230        -1.810923         1.238940
 C        -2.434490        -2.012163         2.510301
 O        -1.184365        -2.676487         2.419023
 C        -1.087628        -1.332195         2.833542
 C        -0.599447        -0.021146         1.918671
 H        -0.397333         1.678802         0.096676
 H        -3.143638         0.629225         2.474757
 H        -3.292672         1.818940         1.051192
 H        -3.159705        -0.312973        -0.458508
 H        -4.242943        -1.889150         1.387700
 H        -2.789559        -2.508517         0.430856
 H        -3.048159        -2.212798         3.444314
 H        -0.908018        -1.364488         3.873305
 H        -0.429592         0.778345         2.585900
 H         0.401951        -0.224287         1.495334
