19
Iteration:  2270charge 0 multiplicity 1
 O        -0.909342         0.895170        -0.130342
 C        -1.660548         0.360041         1.015733
 C        -2.974402         1.088753         1.120168
 C        -2.930821        -0.404587         0.711553
 C        -3.419421        -1.593676         1.558982
 C        -2.294836        -2.094086         2.451198
 O        -1.023366        -2.491451         1.925020
 C        -1.063979        -1.398802         2.720280
 C        -0.800089        -0.037172         2.175899
 H        -0.220593         0.224466        -0.402293
 H        -3.383937         1.230876         2.117391
 H        -3.428007         1.896907         0.541935
 H        -3.074559        -0.606974        -0.368820
 H        -4.219634        -1.425237         2.278049
 H        -3.727112        -2.312402         0.849826
 H        -2.593384        -2.776652         3.163028
 H        -0.642981        -1.435441         3.742155
 H        -0.929504         0.587606         3.092709
 H         0.277139         0.204571         2.031382
