19
Iteration:  1614charge 0 multiplicity 1
 O        -0.958454         1.055808        -0.206639
 C        -1.675094         0.391782         0.901999
 C        -2.996805         0.902894         1.258928
 C        -2.913045        -0.413489         0.529502
 C        -3.243025        -1.681952         1.273852
 C        -2.368013        -2.058416         2.519060
 O        -0.956534        -2.578452         2.305131
 C        -1.218126        -1.205193         2.984711
 C        -0.756960        -0.136767         1.951492
 H        -0.347573         1.724610         0.209231
 H        -3.352222         0.690838         2.313295
 H        -3.441746         1.744610         0.720160
 H        -3.039946        -0.470682        -0.551391
 H        -4.297838        -1.811849         1.613102
 H        -3.269777        -2.555609         0.531800
 H        -2.839923        -2.697359         3.307695
 H        -1.057485        -1.011415         4.031091
 H        -0.444599         0.822166         2.520678
 H         0.188677        -0.567295         1.510298
