19
Iteration:  1246
 O        -1.077073         1.066459        -0.273866
 C        -1.628225         0.439672         0.902760
 C        -3.091027         0.857590         1.087613
 C        -2.698071        -0.500425         0.522612
 C        -3.201505        -1.716701         1.347006
 C        -2.298748        -2.035473         2.595200
 O        -1.099835        -2.577536         2.253711
 C        -1.130864        -1.298456         2.951399
 C        -0.812695         0.010537         2.137210
 H        -0.652742         1.891311         0.084165
 H        -3.260699         0.636697         2.167124
 H        -3.473234         1.689886         0.554153
 H        -2.695051        -0.769692        -0.520491
 H        -4.221449        -1.555498         1.728860
 H        -3.089916        -2.668156         0.771194
 H        -2.946800        -2.490109         3.372909
 H        -0.657942        -1.427350         3.977197
 H        -0.680079         0.974382         2.753235
 H         0.239847        -0.095232         1.720311
