19
Iteration:  3991
 O        -1.008359         0.797512        -0.201627
 C        -1.678907         0.439320         1.008011
 C        -3.104979         1.001495         1.210953
 C        -2.849347        -0.338038         0.602248
 C        -3.326484        -1.566421         1.410046
 C        -2.275084        -2.124172         2.420326
 O        -0.950005        -2.545459         2.070774
 C        -1.099539        -1.332236         2.828550
 C        -0.776245        -0.013682         2.183418
 H        -0.190715         1.193699         0.095732
 H        -3.398335         1.160528         2.200099
 H        -3.533884         1.800641         0.591336
 H        -3.000834        -0.431507        -0.540042
 H        -4.274272        -1.491442         1.908441
 H        -3.520671        -2.426907         0.791478
 H        -2.679340        -2.796751         3.155112
 H        -0.741992        -1.360559         3.855386
 H        -0.832933         0.608187         3.033655
 H         0.238344         0.001969         1.847659
