19
Iteration:  3465
 O        -0.966536         0.796203        -0.181229
 C        -1.603347         0.410798         0.985399
 C        -3.046521         0.992136         1.320590
 C        -2.907084        -0.350775         0.564693
 C        -3.225563        -1.690535         1.330324
 C        -2.329586        -2.046284         2.390667
 O        -1.065854        -2.530584         2.109743
 C        -1.127707        -1.258247         2.871368
 C        -0.710657        -0.025703         2.167739
 H        -1.255387         1.714285        -0.370272
 H        -3.340382         0.830580         2.383771
 H        -3.615564         1.909351         0.919209
 H        -3.297213        -0.318056        -0.455524
 H        -4.342278        -1.682747         1.708357
 H        -3.261589        -2.462775         0.463193
 H        -2.730375        -2.550498         3.300386
 H        -0.744859        -1.407085         3.918192
 H        -0.359893         0.760411         2.799012
 H         0.279951        -0.335351         1.720647
