19
Iteration:   211
 O        -1.001279         1.016323        -0.130412
 C        -1.711512         0.330279         0.876253
 C        -3.082964         0.812383         1.223245
 C        -2.835277        -0.546100         0.475736
 C        -3.037778        -1.868276         1.111622
 C        -2.363987        -2.004050         2.497277
 O        -1.049124        -2.387631         2.493961
 C        -1.265721        -1.099748         3.011520
 C        -0.651838        -0.001166         2.001224
 H        -1.411755         1.223815        -1.025570
 H        -3.343767         0.920262         2.318270
 H        -3.567864         1.534515         0.455606
 H        -3.140493        -0.479927        -0.533352
 H        -4.116904        -2.237612         1.116944
 H        -2.551388        -2.689465         0.564997
 H        -2.920837        -2.407262         3.376751
 H        -1.130759        -0.965025         4.128556
 H        -0.533770         0.869074         2.653218
 H         0.319351        -0.210873         1.596553
