19
Iteration:  4829
 O        -0.918852         0.891740        -0.080904
 C        -1.731951         0.371055         0.926943
 C        -3.071402         1.024132         1.236776
 C        -2.948522        -0.351386         0.599451
 C        -3.283830        -1.690229         1.384408
 C        -2.317434        -2.050226         2.562041
 O        -1.015268        -2.585069         2.071791
 C        -1.021445        -1.324606         2.762867
 C        -0.785267         0.009348         2.020004
 H        -0.362449         1.639613         0.295295
 H        -3.423722         1.122019         2.247293
 H        -3.261670         1.763044         0.499158
 H        -3.300755        -0.577428        -0.374146
 H        -4.378556        -1.704990         1.826858
 H        -3.062937        -2.714664         0.923082
 H        -2.612947        -2.841230         3.395010
 H        -0.583991        -1.348847         3.750218
 H        -0.920105         0.672430         2.872097
 H         0.174730         0.312531         1.609920
