19
Iteration:  4720charge 0 multiplicity 1
 O        -0.936458         0.986668        -0.161312
 C        -1.673758         0.447833         0.931674
 C        -3.049864         0.972615         1.273051
 C        -2.867132        -0.526919         0.583719
 C        -3.240743        -1.696189         1.409018
 C        -2.319240        -2.006343         2.545416
 O        -1.035102        -2.646222         2.105727
 C        -1.113431        -1.307833         2.739618
 C        -0.817386         0.021280         2.071539
 H        -0.505367         1.762338         0.183848
 H        -3.303307         1.075070         2.340608
 H        -3.344391         1.822327         0.731584
 H        -3.166787        -0.685839        -0.419021
 H        -4.318761        -1.477626         1.734143
 H        -3.157632        -2.687415         0.867609
 H        -2.895342        -2.496704         3.383718
 H        -0.517873        -1.503449         3.601375
 H        -1.025432         0.705288         2.898436
 H         0.163782         0.269096         1.726788
