19
Iteration:   407
 O        -1.136866         1.055273        -0.220872
 C        -1.695720         0.341500         0.936377
 C        -3.117547         0.781930         1.186393
 C        -2.868604        -0.512684         0.448526
 C        -2.956341        -1.850256         1.123368
 C        -2.367224        -1.824966         2.510946
 O        -1.084966        -2.545084         2.579018
 C        -1.155593        -1.120446         2.909165
 C        -0.681500        -0.080687         2.031996
 H        -0.620055         1.763246         0.273032
 H        -3.586150         0.628916         2.213709
 H        -3.443088         1.619838         0.499413
 H        -2.857652        -0.521184        -0.677997
 H        -4.000849        -2.209084         1.252182
 H        -2.375752        -2.591588         0.553189
 H        -2.995367        -2.014850         3.423675
 H        -0.941330        -0.989169         3.986372
 H        -0.191747         0.878233         2.497752
 H         0.065304        -0.449300         1.313455
