19
Iteration:  4846
 O        -0.968302         0.927185        -0.158750
 C        -1.626934         0.391160         0.972233
 C        -3.097819         0.952132         1.191673
 C        -2.944729        -0.461446         0.639409
 C        -3.294375        -1.702637         1.427311
 C        -2.294649        -2.042775         2.495057
 O        -1.028431        -2.509932         2.037183
 C        -1.095797        -1.270026         2.794302
 C        -0.712575        -0.026266         2.160928
 H        -0.530408         1.739616         0.196410
 H        -3.382849         1.179958         2.297659
 H        -3.417049         1.740643         0.496169
 H        -3.019963        -0.434717        -0.463165
 H        -4.247279        -1.765195         1.896742
 H        -3.585217        -2.359352         0.623601
 H        -2.755975        -2.675608         3.240895
 H        -0.685580        -1.517833         3.819113
 H        -0.427656         0.780854         2.908780
 H         0.205594        -0.358252         1.568358
