19
Iteration:   783
 O        -0.944877         0.806734        -0.092211
 C        -1.704000         0.350431         0.953245
 C        -3.054936         0.893905         0.973724
 C        -2.831881        -0.595215         0.489560
 C        -3.337895        -1.624656         1.509099
 C        -2.232517        -2.128304         2.511852
 O        -0.945065        -2.235921         1.999573
 C        -1.101422        -1.268556         2.926508
 C        -0.956399         0.044638         2.278082
 H        -0.019815         1.031713         0.018932
 H        -3.672575         1.163643         1.911764
 H        -3.211919         1.583796         0.167232
 H        -2.816369        -0.683087        -0.585349
 H        -4.151163        -1.320722         2.184965
 H        -3.737888        -2.426804         0.906513
 H        -2.544369        -2.944763         3.149785
 H        -0.663554        -1.407726         4.045789
 H        -1.007063         0.927331         2.894212
 H         0.096489        -0.030112         1.894352
