19
Iteration:  4090
 O        -0.937350         0.860275        -0.215967
 C        -1.642226         0.400552         1.000503
 C        -3.014571         1.018139         1.176580
 C        -2.884148        -0.437469         0.642012
 C        -3.323225        -1.622547         1.396619
 C        -2.311874        -2.149467         2.505823
 O        -1.011783        -2.571494         2.023366
 C        -1.061168        -1.315443         2.775297
 C        -0.787397         0.042536         2.280265
 H        -1.228464         1.755757        -0.360161
 H        -3.210444         1.305884         2.214480
 H        -3.414158         1.647388         0.453545
 H        -3.131982        -0.475594        -0.422726
 H        -4.373201        -1.451456         1.708365
 H        -3.462640        -2.417191         0.690276
 H        -2.740281        -2.635506         3.378108
 H        -0.788864        -1.385425         3.867376
 H        -0.990936         0.739591         3.102402
 H         0.235325         0.140110         1.934279
