19
Iteration:  1898charge 0 multiplicity 1
 O        -1.009929         1.140005        -0.140938
 C        -1.586027         0.374900         0.918665
 C        -2.969068         0.773490         1.364190
 C        -2.855229        -0.473580         0.535943
 C        -3.301349        -1.652397         1.328019
 C        -2.409410        -1.964549         2.500108
 O        -1.140979        -2.608337         2.348085
 C        -1.114659        -1.233272         2.769334
 C        -0.596947        -0.166533         1.862254
 H        -0.788494         2.031764         0.233472
 H        -3.397825         0.774238         2.392663
 H        -3.461453         1.670465         0.784942
 H        -3.158933        -0.435858        -0.512301
 H        -4.365299        -1.717981         1.562487
 H        -3.268892        -2.518235         0.694981
 H        -2.948279        -2.161012         3.419296
 H        -0.882293        -1.326374         3.834525
 H        -0.266720         0.658736         2.474530
 H         0.348441        -0.292079         1.277169
