19
Iteration:  2132
 O        -0.802408         0.731577        -0.110418
 C        -1.739151         0.292950         0.974475
 C        -2.965034         1.000447         1.298586
 C        -2.990181        -0.369433         0.658758
 C        -3.390012        -1.580644         1.425173
 C        -2.319741        -2.069840         2.417576
 O        -0.955438        -2.330685         1.904927
 C        -1.108068        -1.323585         2.870102
 C        -0.776308         0.009926         2.184837
 H        -1.475019         0.759516        -0.854623
 H        -3.210255         0.952318         2.292536
 H        -3.329800         1.725496         0.584896
 H        -3.348467        -0.406995        -0.359415
 H        -4.281432        -1.548016         2.036026
 H        -3.586731        -2.475354         0.783497
 H        -2.696524        -2.848698         3.188315
 H        -0.739302        -1.526440         3.870526
 H        -0.513872         0.803745         2.838147
 H         0.183867        -0.271851         1.766150
