19
Iteration:  4664
 O        -0.973102         0.917451        -0.076649
 C        -1.633478         0.314880         0.958204
 C        -3.022782         0.926019         1.285791
 C        -2.913190        -0.399597         0.576081
 C        -3.260529        -1.664528         1.355853
 C        -2.264953        -2.096604         2.382410
 O        -1.000431        -2.514186         2.152316
 C        -1.223317        -1.173059         2.887320
 C        -0.724836        -0.078744         2.005698
 H        -0.876089         1.882630        -0.050114
 H        -3.391194         0.972083         2.280591
 H        -3.546579         1.728675         0.676432
 H        -3.163898        -0.392726        -0.498425
 H        -4.253681        -1.338987         1.869650
 H        -3.451810        -2.569460         0.682791
 H        -2.757602        -2.687614         3.246284
 H        -0.824875        -1.314552         3.881812
 H        -0.403681         0.723159         2.678848
 H         0.171234        -0.310752         1.421335
