19
Iteration:  2685charge 0 multiplicity 1
 O        -1.036179         1.131413        -0.197512
 C        -1.584701         0.420144         0.862209
 C        -2.905604         0.819290         1.511709
 C        -2.976449        -0.390431         0.603195
 C        -3.216304        -1.755834         1.156530
 C        -2.429438        -1.989754         2.529132
 O        -1.101481        -2.521481         2.343453
 C        -1.208322        -1.221054         2.818529
 C        -0.664742        -0.170656         1.885897
 H        -0.367855         0.490609        -0.487075
 H        -2.688707         0.669151         2.637873
 H        -3.433607         1.764512         1.387143
 H        -3.069691         0.041441        -0.440608
 H        -4.298899        -1.943044         1.283431
 H        -2.933685        -2.591515         0.414834
 H        -2.940681        -2.483442         3.422157
 H        -0.890383        -1.059924         3.898876
 H        -0.194421         0.631818         2.472630
 H         0.239512        -0.717520         1.487248
