19
Iteration:   838
 O        -0.912693         0.756552        -0.134832
 C        -1.728540         0.307662         0.902914
 C        -3.112222         1.044369         1.042801
 C        -2.954342        -0.477389         0.594800
 C        -3.219893        -1.708798         1.385085
 C        -2.290372        -2.010192         2.596849
 O        -0.904747        -2.437639         2.094835
 C        -1.085345        -1.273838         2.823901
 C        -0.929479         0.076639         2.202669
 H        -0.268387         1.369491         0.321900
 H        -3.503627         1.175713         2.102584
 H        -3.220190         1.938820         0.389860
 H        -2.921021        -0.638859        -0.491294
 H        -4.250677        -1.727767         1.824865
 H        -3.114099        -2.553955         0.704534
 H        -2.732881        -2.847846         3.100305
 H        -0.564011        -1.370235         3.895493
 H        -1.232843         0.826714         2.893347
 H         0.133883         0.309191         2.119849
