19
Iteration:  2724charge 0 multiplicity 1
 O        -1.133937         1.249606        -0.001460
 C        -1.598530         0.368353         0.929424
 C        -2.976859         0.868461         1.262072
 C        -2.802754        -0.396870         0.470230
 C        -3.237658        -1.704367         1.322088
 C        -2.414741        -1.963731         2.603410
 O        -1.152622        -2.675271         2.359382
 C        -1.103133        -1.267691         2.744276
 C        -0.615411        -0.215873         1.862385
 H        -0.575273         0.936808        -0.778648
 H        -3.233909         0.754220         2.246286
 H        -3.195303         1.823046         0.742881
 H        -3.049891        -0.567615        -0.533314
 H        -4.299870        -1.486516         1.707727
 H        -3.025295        -2.500894         0.624363
 H        -3.054548        -2.119585         3.495567
 H        -0.636323        -1.233232         3.694189
 H        -0.110643         0.583342         2.460747
 H         0.148354        -0.543322         1.117113
