19
Iteration:  2788charge 0 multiplicity 1
 O        -0.992960         1.135392        -0.126439
 C        -1.649464         0.354467         0.866359
 C        -2.934929         0.899886         1.368505
 C        -2.944106        -0.419496         0.598394
 C        -3.280060        -1.755047         1.266118
 C        -2.435861        -2.008938         2.493652
 O        -1.052678        -2.538253         2.245752
 C        -1.150072        -1.246869         2.839804
 C        -0.659757        -0.144410         1.954020
 H        -0.298855         0.590422        -0.566359
 H        -2.974217         1.021203         2.421365
 H        -3.284687         1.847912         0.876902
 H        -3.300732        -0.192965        -0.371673
 H        -4.376779        -1.840413         1.619661
 H        -3.233120        -2.717067         0.654464
 H        -2.850956        -2.363835         3.396471
 H        -0.770797        -1.182114         3.882178
 H        -0.477876         0.574675         2.756125
 H         0.347412        -0.350002         1.595896
