19
Iteration:  3586
 O        -0.998094         1.198527        -0.146474
 C        -1.611111         0.372182         0.849672
 C        -3.036649         0.764759         1.408627
 C        -2.869974        -0.475103         0.571616
 C        -3.195072        -1.752890         1.243658
 C        -2.461599        -1.892410         2.530988
 O        -1.091068        -2.562755         2.321311
 C        -1.138415        -1.215799         2.812504
 C        -0.652808        -0.223944         1.852802
 H        -0.316959         1.624165         0.374777
 H        -3.311056         0.648057         2.509105
 H        -3.330165         1.768503         1.084732
 H        -3.298944        -0.302298        -0.358705
 H        -4.240861        -1.853909         1.551036
 H        -3.062827        -2.601375         0.536130
 H        -3.008728        -2.271567         3.414931
 H        -1.065192        -1.142645         3.911508
 H        -0.251995         0.593546         2.423065
 H         0.300986        -0.462937         1.331118
