19
Iteration:  1698
 O        -0.971595         1.227014        -0.090401
 C        -1.620467         0.391186         0.850959
 C        -2.995455         0.953149         1.346682
 C        -2.893690        -0.444553         0.501894
 C        -3.198956        -1.825826         1.196584
 C        -2.374950        -2.064737         2.549138
 O        -1.068898        -2.594460         2.467740
 C        -1.222026        -1.178978         2.820911
 C        -0.649139        -0.190236         1.890340
 H        -1.300573         0.923421        -0.946343
 H        -3.006089         0.921376         2.426856
 H        -3.548751         1.785042         0.897311
 H        -3.298935        -0.304728        -0.499582
 H        -4.286682        -1.810180         1.392798
 H        -2.938996        -2.555235         0.499999
 H        -3.048424        -2.409082         3.324924
 H        -1.163831        -0.915468         3.898471
 H        -0.039237         0.540753         2.406292
 H         0.142820        -0.878488         1.513379
