19
Iteration:   621charge 0 multiplicity 1
 O        -0.891395         0.843963        -0.204752
 C        -1.693704         0.362232         0.956118
 C        -3.113674         0.872618         0.940102
 C        -2.855823        -0.512613         0.534170
 C        -3.191610        -1.730736         1.435171
 C        -2.296186        -1.998396         2.590269
 O        -0.919454        -2.468795         2.118042
 C        -1.044286        -1.276895         2.886536
 C        -1.030161         0.134109         2.282833
 H        -1.063386         1.800161        -0.196550
 H        -3.308240         1.206519         1.950192
 H        -3.422017         1.568814         0.099662
 H        -2.840671        -0.618804        -0.542543
 H        -4.175326        -1.398850         1.880776
 H        -3.342456        -2.645425         0.778548
 H        -2.648092        -2.728033         3.321953
 H        -0.700368        -1.441320         3.974328
 H        -1.497635         0.786243         3.141962
 H         0.090708         0.347565         2.286818
