19
Iteration:  4850
 O        -0.987903         0.934114        -0.184859
 C        -1.619194         0.376177         0.971255
 C        -3.107150         0.928013         1.209282
 C        -2.892700        -0.433821         0.643567
 C        -3.289723        -1.689200         1.418400
 C        -2.318133        -2.033747         2.468359
 O        -1.031465        -2.485372         2.038561
 C        -1.121969        -1.284563         2.817667
 C        -0.707582        -0.023860         2.179100
 H        -0.594741         1.775143         0.116064
 H        -3.290234         1.158281         2.249954
 H        -3.377850         1.689431         0.516428
 H        -2.944917        -0.555731        -0.412430
 H        -4.206571        -1.676903         2.088131
 H        -3.577473        -2.513045         0.696114
 H        -2.717808        -2.864524         3.137190
 H        -0.747304        -1.498029         3.824040
 H        -0.281312         0.683738         2.909198
 H         0.126846        -0.354458         1.534077
