19
Iteration:  2656
 O        -1.095334         1.037611        -0.170523
 C        -1.625721         0.375312         0.908075
 C        -2.978635         1.023384         1.456571
 C        -2.992298        -0.294765         0.710631
 C        -3.121884        -1.730623         1.107536
 C        -2.346105        -2.071438         2.391129
 O        -1.030479        -2.583254         2.411595
 C        -1.220418        -1.251626         2.839515
 C        -0.641139        -0.206320         1.925019
 H        -0.754770         0.304231        -0.674297
 H        -3.066090         1.359339         2.528724
 H        -3.304153         1.822866         0.834586
 H        -3.260854         0.069516        -0.298020
 H        -4.219078        -1.805392         1.380032
 H        -2.833309        -2.317895         0.215593
 H        -2.998786        -2.444942         3.122371
 H        -1.120122        -1.092401         3.950880
 H        -0.051870         0.581480         2.409707
 H         0.135258        -0.780728         1.439179
