19
Iteration:  3709
 O        -1.096121         1.197263        -0.112255
 C        -1.604417         0.406764         0.942159
 C        -2.932124         0.745311         1.410501
 C        -2.876345        -0.397429         0.430637
 C        -3.246222        -1.792320         1.209638
 C        -2.498028        -1.985585         2.584288
 O        -1.059882        -2.517970         2.387515
 C        -1.187211        -1.165016         2.819307
 C        -0.525286        -0.253106         1.835890
 H        -0.487780         1.838629         0.251390
 H        -3.260463         0.397583         2.349094
 H        -3.461878         1.566820         1.078285
 H        -3.095331        -0.100872        -0.643669
 H        -4.338263        -1.699787         1.286173
 H        -3.138214        -2.710039         0.657421
 H        -3.010212        -2.499429         3.399204
 H        -1.046910        -1.049470         3.878507
 H         0.059346         0.555770         2.287538
 H         0.111086        -0.773908         1.085906
