19
Iteration:  2603
 O        -0.991538         1.234391        -0.110097
 C        -1.646656         0.392601         0.855724
 C        -2.964177         0.846134         1.352148
 C        -2.855488        -0.439113         0.595095
 C        -3.277960        -1.742831         1.315597
 C        -2.394338        -1.944773         2.510194
 O        -1.149558        -2.622672         2.288023
 C        -1.098109        -1.283250         2.818204
 C        -0.620325        -0.128684         1.899772
 H        -0.751824         0.581862        -0.761239
 H        -3.244982         0.782538         2.413760
 H        -3.553369         1.624438         0.987190
 H        -3.295513        -0.384015        -0.398241
 H        -4.335397        -1.722700         1.579221
 H        -2.993422        -2.520175         0.652695
 H        -3.060508        -2.334741         3.313381
 H        -0.820520        -1.291216         3.879523
 H        -0.360797         0.696142         2.634512
 H         0.361202        -0.519906         1.511895
