19
Iteration:  3738
 O        -1.096460         1.195603        -0.160044
 C        -1.668223         0.364633         0.941329
 C        -2.944185         0.863749         1.390937
 C        -2.817573        -0.405751         0.505681
 C        -3.107961        -1.740956         1.258007
 C        -2.360472        -1.996166         2.517527
 O        -1.198613        -2.659837         2.400093
 C        -1.148902        -1.219557         2.801339
 C        -0.567988        -0.214517         1.874744
 H        -1.244811         2.095123         0.189124
 H        -3.407957         0.815032         2.392099
 H        -3.445250         1.563181         0.639710
 H        -2.982407        -0.185686        -0.508840
 H        -4.181516        -1.699657         1.444352
 H        -3.096853        -2.700822         0.620806
 H        -3.071937        -2.338332         3.295842
 H        -0.996891        -1.045636         3.906722
 H        -0.225420         0.740003         2.417775
 H         0.161309        -0.545664         1.110230
