19
Iteration:  4701charge 0 multiplicity 1
 O        -1.107391         1.030675        -0.260547
 C        -1.580224         0.473996         0.975169
 C        -3.052320         0.980641         1.144598
 C        -2.828771        -0.377682         0.631839
 C        -3.199186        -1.677977         1.356080
 C        -2.294492        -2.129620         2.583059
 O        -1.135236        -2.676715         2.142973
 C        -1.029540        -1.382278         2.795261
 C        -0.756128         0.017945         2.175739
 H        -0.546521         1.725272         0.061672
 H        -3.472834         1.046617         2.174763
 H        -3.437374         1.617542         0.415041
 H        -2.961155        -0.404526        -0.440088
 H        -4.224690        -1.625908         1.645106
 H        -3.159513        -2.630516         0.774962
 H        -2.782516        -2.625441         3.401522
 H        -0.726500        -1.419035         3.848422
 H        -0.857068         0.832573         2.966469
 H         0.337707         0.045054         1.901722
