19
Iteration:  3985
 O        -1.000515         0.775521        -0.158315
 C        -1.661913         0.425403         1.007779
 C        -3.111151         1.049046         1.187289
 C        -2.911079        -0.345760         0.585349
 C        -3.287581        -1.627975         1.422178
 C        -2.254508        -2.106696         2.389274
 O        -1.004508        -2.574867         2.069286
 C        -1.075679        -1.269617         2.793204
 C        -0.760639         0.013795         2.211586
 H        -0.198090         1.301776        -0.012023
 H        -3.454357         1.038972         2.294719
 H        -3.504734         1.875117         0.619339
 H        -3.123031        -0.468290        -0.413651
 H        -4.289496        -1.491824         1.931738
 H        -3.344449        -2.573471         0.739515
 H        -2.870931        -2.762639         3.087566
 H        -0.612345        -1.388024         3.783281
 H        -0.726394         0.787486         3.083907
 H         0.357437        -0.102496         1.957650
