19
Iteration:  4610charge 0 multiplicity 1
 O        -1.074576         0.971483        -0.232416
 C        -1.647736         0.351566         0.970906
 C        -3.006084         0.949409         1.338793
 C        -2.811783        -0.421390         0.582074
 C        -3.143073        -1.704146         1.309818
 C        -2.414970        -2.017530         2.509944
 O        -1.087443        -2.614608         2.182887
 C        -1.141568        -1.339413         2.823786
 C        -0.699759         0.051001         2.077746
 H        -0.794546         1.915684        -0.116168
 H        -3.178003         0.983712         2.380461
 H        -3.094617         1.942601         0.819849
 H        -3.092289        -0.455585        -0.495545
 H        -4.248598        -1.595736         1.351549
 H        -3.043995        -2.593218         0.620155
 H        -2.843654        -2.600819         3.395393
 H        -1.045055        -1.326236         3.903370
 H        -0.512589         0.800172         2.904170
 H         0.224671        -0.131875         1.486298
