19
Iteration:  2640charge 0 multiplicity 1
 O        -1.045799         1.092362        -0.203541
 C        -1.669581         0.477592         0.970897
 C        -2.936047         1.148685         1.388435
 C        -2.990237        -0.338946         0.638521
 C        -3.201023        -1.742275         1.160280
 C        -2.418178        -2.057078         2.442985
 O        -0.989356        -2.665032         2.416743
 C        -1.179069        -1.325384         2.882919
 C        -0.646149        -0.207441         1.932471
 H        -0.940946         0.482717        -0.923986
 H        -3.183915         0.954866         2.426222
 H        -3.362070         2.038916         0.817387
 H        -3.396462        -0.303730        -0.411486
 H        -4.156353        -2.243884         1.145951
 H        -2.711104        -2.412802         0.381369
 H        -2.820281        -2.644220         3.351225
 H        -0.920424        -1.174384         3.932959
 H        -0.216497         0.644886         2.498716
 H         0.154635        -0.542702         1.202968
