19
Iteration:  4681
 O        -1.072696         0.961012        -0.229001
 C        -1.710667         0.451956         0.994254
 C        -3.066730         0.988416         1.193835
 C        -2.814290        -0.407724         0.575655
 C        -3.253398        -1.644851         1.351812
 C        -2.400980        -2.052447         2.507415
 O        -0.956291        -2.582762         2.149194
 C        -1.101145        -1.386567         2.888457
 C        -0.679245        -0.079635         2.140423
 H        -0.912888         1.945420        -0.119113
 H        -3.476746         0.971849         2.238031
 H        -3.216575         1.845186         0.546101
 H        -2.874827        -0.460371        -0.529111
 H        -4.238085        -1.646981         1.738016
 H        -3.375099        -2.357940         0.563169
 H        -2.850616        -2.675821         3.213151
 H        -0.719984        -1.354104         3.962112
 H        -0.480516         0.715464         2.921067
 H         0.329237        -0.379120         1.734558
