19
Iteration:   697charge 0 multiplicity 1
 O        -0.830633         0.779461        -0.018805
 C        -1.699314         0.292800         1.017539
 C        -3.076634         0.847358         0.969504
 C        -2.889520        -0.610155         0.552904
 C        -3.333004        -1.759453         1.444003
 C        -2.341894        -2.028474         2.552747
 O        -0.921016        -2.220108         1.929066
 C        -1.071110        -1.252586         2.840774
 C        -0.897344         0.222406         2.314845
 H        -1.125000         0.496052        -0.936966
 H        -3.389999         1.230069         1.975795
 H        -3.349583         1.505083         0.136043
 H        -2.773259        -1.009160        -0.439778
 H        -4.319091        -1.463671         1.784475
 H        -3.559106        -2.565559         0.726144
 H        -2.722275        -2.696428         3.303446
 H        -0.501091        -1.390053         3.877119
 H        -1.318798         0.971748         3.126493
 H         0.204501         0.524626         2.390683
