19
Iteration:   338charge 0 multiplicity 1
 O        -1.167798         1.166879        -0.263443
 C        -1.597849         0.291617         0.811922
 C        -2.908290         0.859059         1.298427
 C        -2.842822        -0.462554         0.529967
 C        -2.982698        -1.890218         1.074467
 C        -2.403087        -2.165543         2.481725
 O        -1.043341        -2.446750         2.792978
 C        -1.359633        -1.097520         2.879259
 C        -0.673636        -0.117984         1.878261
 H        -1.352771         2.091666        -0.012807
 H        -3.192804         0.868594         2.326492
 H        -3.290658         1.629063         0.615198
 H        -3.070145        -0.378848        -0.496471
 H        -4.022283        -2.114640         1.082426
 H        -2.504738        -2.466825         0.269833
 H        -3.183701        -2.441688         3.267858
 H        -1.362880        -0.698404         3.911289
 H        -0.234235         0.801760         2.395890
 H         0.209873        -0.724339         1.551313
