19
Iteration:  4773charge 0 multiplicity 1
 O        -1.079978         0.835122        -0.185001
 C        -1.593140         0.385386         1.021409
 C        -2.957548         0.979420         1.242263
 C        -2.821220        -0.444201         0.666327
 C        -3.290441        -1.678375         1.342018
 C        -2.328812        -2.169782         2.434296
 O        -0.958190        -2.401583         2.031844
 C        -1.232272        -1.233636         2.853931
 C        -0.740144        -0.016015         2.163016
 H        -0.973729         1.770254        -0.060411
 H        -3.331204         0.975507         2.301775
 H        -3.343880         1.730872         0.596925
 H        -2.897302        -0.562448        -0.383311
 H        -4.325187        -1.518889         1.860544
 H        -3.681320        -2.465616         0.590567
 H        -2.699542        -2.729732         3.391082
 H        -0.809864        -1.499862         3.848285
 H        -0.510683         0.722988         2.924524
 H         0.153071        -0.144806         1.511420
