19
Iteration:   251
 O        -1.141669         1.257056        -0.166454
 C        -1.669223         0.442688         0.783421
 C        -3.087662         0.794246         1.211254
 C        -2.744716        -0.541062         0.410627
 C        -3.065964        -1.858280         1.200969
 C        -2.381381        -2.120692         2.523143
 O        -1.006774        -2.517498         2.743580
 C        -1.305141        -1.085411         2.881971
 C        -0.640627        -0.128640         1.865365
 H        -0.244401         0.944082        -0.222135
 H        -3.234564         0.876899         2.242198
 H        -3.606429         1.579487         0.585694
 H        -2.971311        -0.516453        -0.630158
 H        -4.093586        -1.723541         1.550987
 H        -2.959673        -2.712045         0.523617
 H        -3.069451        -2.590675         3.275131
 H        -1.191634        -0.785274         3.931531
 H        -0.319458         0.821852         2.429205
 H         0.200745        -0.661088         1.390361
