19
Iteration:   550charge 0 multiplicity 1
 O        -0.987495         1.012747        -0.181167
 C        -1.659288         0.286265         0.836458
 C        -3.109217         0.848864         1.065589
 C        -2.916384        -0.517440         0.477232
 C        -3.171834        -1.749727         1.327487
 C        -2.240243        -2.183909         2.505556
 O        -0.904192        -2.399121         2.315456
 C        -1.238162        -1.129338         2.998682
 C        -0.894942         0.096267         2.157745
 H        -0.064633         0.736022        -0.378851
 H        -3.331929         0.770465         2.141116
 H        -3.246233         1.775173         0.553395
 H        -3.090458        -0.541295        -0.641685
 H        -4.029622        -1.522722         1.936830
 H        -3.395089        -2.604135         0.737162
 H        -2.834065        -2.757244         3.235438
 H        -0.896551        -1.230327         3.974013
 H        -0.815281         0.966620         2.816966
 H         0.134638        -0.125487         1.868633
