19
Iteration:  3230charge 0 multiplicity 1
 O        -0.825079         1.008398        -0.021579
 C        -1.682540         0.407041         0.909214
 C        -2.995996         1.013897         1.111250
 C        -2.896995        -0.441195         0.527916
 C        -3.310369        -1.611289         1.591538
 C        -2.289640        -2.188343         2.575459
 O        -1.133941        -2.507654         1.962264
 C        -0.988463        -1.391503         2.757904
 C        -0.875809         0.040764         2.179374
 H        -0.999662         0.700113        -0.950106
 H        -3.273652         0.946864         2.120620
 H        -3.189245         1.701687         0.263436
 H        -3.341825        -0.771970        -0.401876
 H        -4.197401        -1.226813         2.100245
 H        -3.667994        -2.543738         0.992323
 H        -2.586241        -2.959667         3.348158
 H        -0.599640        -1.694438         3.687120
 H        -1.012783         0.764548         2.988985
 H         0.100876         0.216584         1.784216
