19
Iteration:  3332charge 0 multiplicity 1
 O        -0.766649         0.707273        -0.199500
 C        -1.689561         0.457458         0.959471
 C        -2.964065         1.141903         1.215574
 C        -2.880621        -0.323495         0.698047
 C        -3.411941        -1.766564         1.533200
 C        -2.257618        -2.208858         2.436163
 O        -0.933900        -2.472259         1.954251
 C        -1.154675        -1.323356         2.765476
 C        -0.982367         0.089788         2.220355
 H        -1.009445         1.612092        -0.454353
 H        -3.351988         1.185573         2.242843
 H        -3.250140         1.954424         0.631671
 H        -3.251075        -0.672755        -0.250599
 H        -4.355303        -1.787154         2.146983
 H        -3.587441        -2.460742         0.737861
 H        -2.576705        -2.873786         3.232646
 H        -0.671922        -1.443119         3.715226
 H        -1.273475         0.803148         2.951394
 H         0.044323         0.203389         1.838010
