19
Iteration:  2781charge 0 multiplicity 1
 O        -0.989572         1.160220        -0.083258
 C        -1.634847         0.392257         0.899661
 C        -2.944001         0.927045         1.362282
 C        -2.908257        -0.434174         0.550684
 C        -3.283595        -1.765276         1.339803
 C        -2.456608        -2.002927         2.527167
 O        -1.018511        -2.567907         2.274967
 C        -1.141107        -1.288411         2.825330
 C        -0.698663        -0.175317         1.872210
 H        -0.303630         0.613870        -0.440631
 H        -3.134690         1.223470         2.440515
 H        -3.286849         1.715626         0.771467
 H        -3.133764        -0.313221        -0.550213
 H        -4.436774        -1.707890         1.478822
 H        -3.278551        -2.552099         0.586637
 H        -3.036571        -2.538395         3.387041
 H        -0.796943        -1.142142         3.833226
 H        -0.451675         0.713924         2.530091
 H         0.195595        -0.234180         1.194681
