19
Iteration:  1059charge 0 multiplicity 1
 O        -1.220289         1.271512        -0.250201
 C        -1.618623         0.415588         0.816462
 C        -3.002733         0.871196         1.381688
 C        -2.793924        -0.455630         0.434651
 C        -2.942565        -1.832866         1.118242
 C        -2.401311        -1.936301         2.516189
 O        -1.118176        -2.599206         2.748692
 C        -1.228719        -1.202644         2.951950
 C        -0.677569        -0.285630         1.756400
 H        -0.918421         2.087868         0.253002
 H        -3.247273         0.684960         2.399923
 H        -3.455940         1.770507         1.002355
 H        -3.233717        -0.410844        -0.572013
 H        -3.955528        -2.264914         1.042395
 H        -2.322995        -2.474018         0.422665
 H        -3.044978        -2.326697         3.294123
 H        -1.072942        -0.946480         4.062666
 H         0.132731         0.367107         2.059322
 H        -0.086386        -1.031150         1.182495
