19
Iteration:   431
 O        -1.073454         1.173171        -0.244451
 C        -1.621497         0.385468         0.769513
 C        -3.061426         0.817770         1.182394
 C        -2.749235        -0.518890         0.462391
 C        -3.043723        -1.855889         1.235570
 C        -2.452226        -2.111017         2.636205
 O        -1.010228        -2.477950         2.574411
 C        -1.294709        -1.154665         2.937532
 C        -0.676316        -0.087289         1.952417
 H        -1.289291         2.073103         0.078357
 H        -3.307543         0.750147         2.201073
 H        -3.551005         1.570027         0.483315
 H        -3.197839        -0.588658        -0.606220
 H        -4.182822        -1.822730         1.345268
 H        -2.722653        -2.722642         0.651431
 H        -2.943996        -2.606062         3.416075
 H        -1.041831        -0.973563         3.966732
 H        -0.516103         0.935921         2.420599
 H         0.287986        -0.352494         1.476995
