19
Iteration:  4492charge 0 multiplicity 1
 O        -1.188514         1.046300        -0.250813
 C        -1.620911         0.467379         0.909325
 C        -2.966395         0.960328         1.419254
 C        -2.795745        -0.378441         0.600949
 C        -3.056727        -1.719994         1.141603
 C        -2.385286        -1.998712         2.486743
 O        -1.158645        -2.716483         2.405240
 C        -1.123078        -1.227067         2.863011
 C        -0.623946        -0.186972         1.974043
 H        -0.996530         1.991268         0.068695
 H        -3.425021         0.887652         2.412474
 H        -3.510344         1.756183         0.866942
 H        -3.169391        -0.236416        -0.446449
 H        -4.142114        -1.753970         1.250811
 H        -2.926858        -2.477010         0.326523
 H        -3.042589        -2.437755         3.311784
 H        -0.939286        -1.078931         4.009867
 H        -0.148690         0.581429         2.599137
 H         0.120911        -0.424575         1.211651
