19
Iteration:  1145charge 0 multiplicity 1
 O        -1.217696         1.066162        -0.257209
 C        -1.662128         0.445395         0.903303
 C        -3.019744         0.889340         1.314490
 C        -2.797007        -0.436709         0.566901
 C        -2.960273        -1.907903         1.069116
 C        -2.415041        -1.957060         2.557269
 O        -1.125993        -2.577625         2.558775
 C        -1.192439        -1.170746         2.866178
 C        -0.615804        -0.148143         1.951735
 H        -0.779007         1.914726        -0.076335
 H        -3.119303         0.908674         2.374852
 H        -3.438062         1.787216         0.771133
 H        -3.076048        -0.481444        -0.501919
 H        -4.036909        -2.155311         1.203873
 H        -2.453176        -2.489494         0.299004
 H        -3.188482        -2.042672         3.337239
 H        -1.007604        -0.979303         3.901100
 H        -0.279400         0.712303         2.647035
 H         0.219567        -0.475065         1.297162
