19
Iteration:  3132charge 0 multiplicity 1
 O        -0.855735         0.876374        -0.092843
 C        -1.688100         0.340249         0.956197
 C        -2.994015         1.040538         1.246363
 C        -2.906462        -0.405094         0.648503
 C        -3.361604        -1.649663         1.475172
 C        -2.286462        -2.094249         2.446511
 O        -1.075598        -2.519447         1.920387
 C        -1.067594        -1.262231         2.794057
 C        -0.803583         0.073929         2.176696
 H        -0.509393         0.112981        -0.642676
 H        -3.253256         0.854692         2.339866
 H        -3.528862         1.757045         0.597178
 H        -3.187690        -0.429888        -0.398733
 H        -4.277551        -1.579963         2.057484
 H        -3.486131        -2.518184         0.739901
 H        -2.852136        -2.728047         3.298643
 H        -0.821243        -1.472464         3.841255
 H        -0.764185         0.838990         3.001517
 H         0.283794         0.029553         1.812125
