19
Iteration:   591charge 0 multiplicity 1
 O        -0.905346         0.829229        -0.147193
 C        -1.715414         0.419863         1.045279
 C        -3.191935         0.770970         0.991714
 C        -2.758996        -0.557467         0.553731
 C        -3.181770        -1.792156         1.409160
 C        -2.323160        -2.033725         2.570939
 O        -1.029857        -2.394772         2.062583
 C        -1.153876        -1.145475         2.881392
 C        -0.853906         0.188800         2.186380
 H        -0.187225         1.326058         0.330619
 H        -3.602684         0.947689         1.999959
 H        -3.484878         1.554646         0.282389
 H        -2.602725        -0.746515        -0.532593
 H        -4.222542        -1.583530         1.788737
 H        -3.318313        -2.702470         0.770456
 H        -2.647005        -2.775460         3.383905
 H        -0.709961        -1.154319         3.879002
 H        -0.878030         1.029131         2.837178
 H         0.167026         0.034665         1.762521
