19
Iteration:  2594
 O        -1.007730         1.227017        -0.106507
 C        -1.614565         0.369199         0.897176
 C        -2.992617         0.808935         1.400844
 C        -2.895631        -0.431101         0.495082
 C        -3.316288        -1.772665         1.317186
 C        -2.461118        -1.939969         2.550578
 O        -1.125285        -2.576056         2.258871
 C        -1.085400        -1.271269         2.769936
 C        -0.558820        -0.118041         1.972201
 H        -0.477051         0.732482        -0.727690
 H        -3.119597         0.584719         2.438601
 H        -3.264183         1.654304         0.798883
 H        -3.111492        -0.346235        -0.540661
 H        -4.356449        -1.704615         1.554533
 H        -3.329939        -2.740118         0.770881
 H        -2.958363        -2.336931         3.578309
 H        -0.863951        -1.171991         3.794771
 H        -0.205579         0.781921         2.589120
 H         0.306148        -0.508902         1.291204
