19
Iteration:  3899charge 0 multiplicity 1
 O        -0.963943         0.964851        -0.094557
 C        -1.694321         0.362040         0.993367
 C        -3.040821         0.949658         1.167837
 C        -2.899067        -0.406034         0.509117
 C        -3.247175        -1.612394         1.422804
 C        -2.396100        -2.107747         2.511234
 O        -0.966137        -2.516002         2.116277
 C        -1.113260        -1.353134         2.820679
 C        -0.695601        -0.112774         2.072203
 H        -1.109006         1.954317        -0.098469
 H        -3.513721         1.190250         2.199729
 H        -3.348335         1.770225         0.513869
 H        -2.819286        -0.372408        -0.517983
 H        -4.219443        -1.337733         1.935661
 H        -3.650868        -2.413110         0.923479
 H        -2.716148        -2.700122         3.397053
 H        -1.005727        -1.269214         3.964897
 H        -0.475413         0.728811         2.746681
 H         0.185513        -0.286221         1.433822
