19
Iteration:  2808charge 0 multiplicity 1
 O        -1.052586         1.011388        -0.228583
 C        -1.557708         0.309964         0.906352
 C        -2.868570         0.837303         1.475175
 C        -2.951505        -0.372698         0.608961
 C        -3.198667        -1.670900         1.293335
 C        -2.438589        -2.028846         2.447959
 O        -1.104790        -2.565782         2.155148
 C        -1.213313        -1.200996         2.898243
 C        -0.635983         0.015511         2.080148
 H        -0.629648         0.385930        -0.789744
 H        -3.187436         0.777918         2.482544
 H        -3.391913         1.790496         1.073354
 H        -3.192660        -0.328916        -0.426186
 H        -4.174002        -1.868812         1.383663
 H        -3.069958        -2.364686         0.448222
 H        -2.947780        -2.627671         3.134669
 H        -0.972443        -1.272624         4.001843
 H        -0.469665         0.972870         2.586719
 H         0.325545        -0.170680         1.576794
