19
Iteration:  4493charge 0 multiplicity 1
 O        -1.192162         1.042717        -0.246970
 C        -1.628746         0.452189         0.908336
 C        -2.962470         0.960666         1.431331
 C        -2.790883        -0.386649         0.598504
 C        -3.044017        -1.713305         1.135183
 C        -2.396436        -1.993581         2.485162
 O        -1.158482        -2.712930         2.404104
 C        -1.124900        -1.230126         2.863795
 C        -0.616354        -0.178291         1.977323
 H        -1.018577         2.004321         0.037509
 H        -3.420352         0.897954         2.398585
 H        -3.520161         1.769166         0.864415
 H        -3.144664        -0.251402        -0.454501
 H        -4.150114        -1.699706         1.266348
 H        -2.965889        -2.492406         0.352679
 H        -3.044228        -2.448489         3.253998
 H        -0.915852        -1.085197         4.000739
 H        -0.152199         0.593389         2.569859
 H         0.108726        -0.412324         1.222741
