19
Iteration:  4284charge 0 multiplicity 1
 O        -1.095511         1.190753        -0.278240
 C        -1.647942         0.402841         0.900309
 C        -2.943131         0.883962         1.425203
 C        -2.856984        -0.467087         0.570419
 C        -3.182672        -1.728519         1.234540
 C        -2.414253        -2.006885         2.542981
 O        -1.189412        -2.656275         2.398879
 C        -1.110740        -1.352819         2.769128
 C        -0.562720        -0.035199         1.934744
 H        -0.477751         1.867050        -0.047752
 H        -3.109944         0.790521         2.448935
 H        -3.635617         1.594783         0.871427
 H        -3.269870        -0.373081        -0.390840
 H        -4.276722        -1.998729         1.227368
 H        -2.732348        -2.600442         0.686529
 H        -3.045630        -2.260417         3.414738
 H        -0.742000        -1.355253         3.871915
 H        -0.579237         0.746026         2.702754
 H         0.445280        -0.227018         1.572449
