19
Iteration:  3253charge 0 multiplicity 1
 O        -0.774703         1.006729        -0.073766
 C        -1.606833         0.380372         0.994519
 C        -3.101325         0.893404         1.139001
 C        -2.834284        -0.527046         0.682483
 C        -3.414139        -1.577072         1.581916
 C        -2.323872        -2.044350         2.550311
 O        -1.069848        -2.506911         1.805413
 C        -1.105108        -1.300668         2.769640
 C        -0.820534        -0.013076         2.201362
 H        -1.220563         0.939088        -0.931162
 H        -3.332962         1.085235         2.130643
 H        -3.324908         1.396273         0.210876
 H        -2.821096        -0.928770        -0.336745
 H        -4.337107        -1.170445         2.021642
 H        -3.702304        -2.499967         0.987610
 H        -2.425558        -2.767069         3.385756
 H        -0.709576        -1.574346         3.693800
 H        -0.935735         0.725881         2.988682
 H         0.206700         0.154179         1.923597
