19
Iteration:  4376
 O        -1.075699         1.214504        -0.256314
 C        -1.669990         0.433653         0.832473
 C        -2.947565         0.871333         1.475914
 C        -2.944733        -0.330541         0.571460
 C        -3.040500        -1.772107         1.137171
 C        -2.439248        -1.974638         2.596705
 O        -1.181013        -2.698190         2.523208
 C        -1.155848        -1.285726         2.810032
 C        -0.592458        -0.240243         1.812668
 H        -1.285241         2.134396         0.093157
 H        -2.966709         0.944424         2.572558
 H        -3.416627         1.744389         0.994098
 H        -3.191951        -0.202092        -0.528937
 H        -4.073221        -2.231079         1.050698
 H        -2.479420        -2.413794         0.457143
 H        -3.076066        -2.247329         3.420229
 H        -0.558281        -1.235391         3.686485
 H        -0.319255         0.527791         2.611105
 H         0.351887        -0.614309         1.358411
