19
Iteration:  2354charge 0 multiplicity 1
 O        -0.854191         0.751409        -0.108183
 C        -1.645332         0.324736         1.019368
 C        -2.996711         0.945326         1.196784
 C        -2.953607        -0.429785         0.634110
 C        -3.387366        -1.603874         1.519188
 C        -2.335973        -2.081866         2.464290
 O        -1.006767        -2.349114         1.850914
 C        -1.107155        -1.295947         2.830396
 C        -0.772225        -0.026522         2.180761
 H        -0.985994         1.707317        -0.255483
 H        -3.216007         1.116714         2.294371
 H        -3.075659         1.828004         0.519626
 H        -3.045271        -0.551616        -0.487050
 H        -4.211947        -1.385512         2.244054
 H        -3.821423        -2.442083         0.872772
 H        -2.712303        -2.875778         3.223135
 H        -0.647196        -1.531405         3.813265
 H        -0.941179         0.879289         2.769691
 H         0.222220        -0.081200         1.790166
