19
Iteration:  2610charge 0 multiplicity 1
 O        -1.007450         1.196643        -0.116401
 C        -1.589007         0.423783         0.882817
 C        -2.985774         0.907573         1.347231
 C        -2.899641        -0.469422         0.636889
 C        -3.150453        -1.671008         1.262686
 C        -2.366088        -1.988478         2.522012
 O        -1.167380        -2.664386         2.307223
 C        -1.167043        -1.265135         2.838798
 C        -0.681923        -0.174167         1.888494
 H        -0.821414         0.662810        -0.927547
 H        -3.109261         0.847238         2.475986
 H        -3.577677         1.764273         0.879516
 H        -3.366812        -0.331732        -0.383169
 H        -4.252365        -1.731136         1.553309
 H        -2.976098        -2.515266         0.508078
 H        -2.791500        -2.435246         3.376688
 H        -0.639802        -1.230254         3.854144
 H        -0.449965         0.686900         2.482119
 H         0.261141        -0.295503         1.405264
