19
Iteration:  3426charge 0 multiplicity 1
 O        -0.933261         1.007241        -0.127385
 C        -1.694204         0.408454         0.873690
 C        -2.996854         1.039625         1.105936
 C        -2.917451        -0.424600         0.607644
 C        -3.328259        -1.670278         1.461020
 C        -2.263967        -2.162358         2.544388
 O        -1.022281        -2.601787         2.067401
 C        -1.132899        -1.344032         2.814442
 C        -0.774829        -0.032238         2.139674
 H        -0.335492         1.683630         0.192591
 H        -3.261872         1.101084         2.174104
 H        -3.255074         1.795517         0.414729
 H        -3.268143        -0.427906        -0.400319
 H        -4.261963        -1.523359         1.958955
 H        -3.578033        -2.566957         0.860854
 H        -2.752531        -2.511099         3.442468
 H        -0.717587        -1.393202         3.835273
 H        -0.838754         0.764996         2.953285
 H         0.264754        -0.100641         1.773258
