19
Iteration:    88
 O        -0.753431         0.872605        -0.009889
 C        -1.722383         0.343755         0.937567
 C        -3.231753         0.831630         0.901135
 C        -2.740515        -0.630518         0.550883
 C        -3.206294        -1.834460         1.374431
 C        -2.334465        -2.005997         2.633150
 O        -0.992588        -2.345946         2.128647
 C        -1.051461        -1.164833         2.847050
 C        -1.020646         0.246637         2.213684
 H        -1.061300         0.699315        -0.928512
 H        -3.522299         0.973096         1.945245
 H        -3.563194         1.384682         0.095317
 H        -2.636105        -0.807733        -0.500470
 H        -4.282633        -1.660521         1.617042
 H        -3.114944        -2.769013         0.815969
 H        -2.593709        -2.623681         3.473295
 H        -0.574166        -1.320970         3.807952
 H        -1.568470         0.802120         2.931787
 H        -0.041772         0.558782         2.169594
