19
Iteration:  2395
 O        -0.973093         0.958385        -0.168317
 C        -1.646012         0.511792         1.034189
 C        -3.047075         1.001617         1.081946
 C        -2.914343        -0.423844         0.636140
 C        -3.318115        -1.610472         1.513897
 C        -2.299605        -2.142499         2.527982
 O        -1.088588        -2.640832         2.007889
 C        -1.019030        -1.369782         2.766499
 C        -0.781562         0.036908         2.119088
 H         0.005146         1.037523         0.043314
 H        -3.603728         1.087716         1.990074
 H        -3.036648         1.733204         0.212537
 H        -3.022422        -0.632257        -0.456183
 H        -4.137697        -1.134054         2.115055
 H        -3.709978        -2.486433         0.932839
 H        -2.635488        -2.729591         3.494063
 H        -0.735324        -1.574484         3.777967
 H        -0.731295         0.471663         3.107143
 H         0.301793         0.190155         1.998564
