19
Iteration:   558charge 0 multiplicity 1
 O        -0.973825         0.999886        -0.184177
 C        -1.683912         0.263900         0.906892
 C        -3.101351         0.796189         1.051159
 C        -2.911008        -0.512453         0.489096
 C        -3.265395        -1.735737         1.339748
 C        -2.256636        -2.135886         2.516345
 O        -0.884263        -2.337869         2.251970
 C        -1.254020        -1.143887         3.001557
 C        -0.811564         0.041049         2.154659
 H         0.013443         0.895049        -0.031116
 H        -3.602428         0.892140         2.008647
 H        -3.130431         1.805322         0.491675
 H        -2.928254        -0.662016        -0.603675
 H        -4.181345        -1.673081         1.987558
 H        -3.335958        -2.694655         0.756054
 H        -2.748179        -3.016621         3.138177
 H        -0.908830        -0.993587         4.033940
 H        -0.859992         0.998973         2.596745
 H         0.220708         0.074558         1.839673
