19
Iteration:  1837
 O        -0.988711         1.112356        -0.094961
 C        -1.728530         0.421500         0.923903
 C        -2.997264         0.938777         1.457169
 C        -2.937773        -0.321045         0.575006
 C        -3.187408        -1.812902         1.109271
 C        -2.389631        -2.038688         2.480047
 O        -1.072997        -2.607139         2.479591
 C        -1.174602        -1.180500         2.796051
 C        -0.615087        -0.206857         1.812157
 H        -0.657690         0.369048        -0.714683
 H        -2.981396         0.865688         2.525237
 H        -3.234327         1.787438         0.926537
 H        -3.307257         0.056960        -0.331792
 H        -4.241783        -1.996329         1.330237
 H        -2.683388        -2.456619         0.333390
 H        -3.061194        -2.117376         3.392631
 H        -0.931036        -1.012926         3.845479
 H        -0.211597         0.722686         2.293042
 H         0.058712        -0.809825         1.232894
