19
Iteration:  3024charge 0 multiplicity 1
 O        -0.987970         0.859968        -0.134550
 C        -1.601292         0.270489         0.955776
 C        -2.997950         0.996045         1.298519
 C        -2.902034        -0.443836         0.720171
 C        -3.325096        -1.633614         1.389286
 C        -2.356398        -2.089359         2.435195
 O        -1.050336        -2.395731         1.929072
 C        -1.123761        -1.287736         2.793831
 C        -0.717966         0.021380         2.199270
 H        -0.335006         0.115098        -0.279343
 H        -3.255106         1.444714         2.311515
 H        -3.268428         1.744609         0.594669
 H        -3.061041        -0.435166        -0.323566
 H        -4.315802        -1.671007         1.876752
 H        -3.403239        -2.345307         0.594950
 H        -2.807861        -2.669068         3.233218
 H        -0.691291        -1.398780         3.805059
 H        -0.881045         0.786003         2.961290
 H         0.327295         0.093920         1.817655
