19
Iteration:   807
 O        -0.864203         0.771474        -0.191917
 C        -1.647522         0.461808         0.952176
 C        -3.108311         0.795574         1.056801
 C        -2.832855        -0.580832         0.672210
 C        -3.238666        -1.720679         1.491234
 C        -2.333845        -2.049840         2.517869
 O        -1.028670        -2.400785         1.943373
 C        -1.166322        -1.203779         2.780482
 C        -0.876765         0.247068         2.317221
 H         0.023995         0.996532         0.057780
 H        -3.428537         0.919513         2.107498
 H        -3.561373         1.568976         0.415426
 H        -2.802341        -0.756440        -0.411677
 H        -4.198128        -1.507757         1.949413
 H        -3.425757        -2.591014         0.836897
 H        -2.752846        -2.862158         3.107406
 H        -0.670789        -1.310838         3.871880
 H        -1.299533         0.968530         3.081964
 H         0.257670         0.342916         2.307549
