19
Iteration:  3560charge 0 multiplicity 1
 O        -1.135168         1.152546        -0.105294
 C        -1.659570         0.454364         0.976070
 C        -3.037204         0.901228         1.224448
 C        -2.785345        -0.478345         0.505325
 C        -3.196088        -1.672855         1.266880
 C        -2.387368        -2.017909         2.598647
 O        -1.176582        -2.656768         2.309142
 C        -1.047618        -1.237772         2.854193
 C        -0.599818        -0.184801         1.899427
 H        -0.488131         1.772837         0.235086
 H        -3.491037         0.797155         2.186052
 H        -3.253738         1.891039         0.810098
 H        -3.175820        -0.430834        -0.571651
 H        -4.255590        -1.768734         1.484937
 H        -2.927800        -2.533073         0.612092
 H        -2.945240        -2.491659         3.420456
 H        -0.752973        -1.274654         3.858886
 H         0.106420         0.570537         2.444129
 H         0.121180        -0.540575         1.180249
