19
Iteration:  2825
 O        -1.080406         0.926691        -0.230623
 C        -1.591226         0.422297         0.962223
 C        -2.942381         0.964103         1.453687
 C        -2.806939        -0.371441         0.637266
 C        -3.245921        -1.747294         1.177538
 C        -2.366498        -2.019951         2.490663
 O        -1.077844        -2.467411         2.185822
 C        -1.193003        -1.265166         2.808335
 C        -0.692426        -0.092255         2.103980
 H        -1.012189         0.133824        -0.744843
 H        -2.954343         0.824557         2.570412
 H        -3.313430         1.904967         1.058287
 H        -3.173859        -0.169828        -0.414975
 H        -4.431712        -1.538605         1.419585
 H        -3.031346        -2.556949         0.392198
 H        -2.938929        -2.630538         3.281078
 H        -0.841655        -1.329434         3.825163
 H        -0.645276         0.806816         2.791084
 H         0.337526        -0.379414         1.750710
