19
Iteration:   311
 O        -1.036638         1.096995        -0.274452
 C        -1.705655         0.466197         0.900534
 C        -3.125019         0.681990         1.352863
 C        -2.773654        -0.507310         0.476926
 C        -2.963241        -1.855800         1.078344
 C        -2.414733        -1.888192         2.484820
 O        -1.130115        -2.531790         2.715323
 C        -1.181817        -1.099217         2.919106
 C        -0.688968        -0.129528         1.866509
 H        -1.042905         2.072668        -0.198483
 H        -3.374164         0.609573         2.483167
 H        -3.694844         1.384265         0.771907
 H        -2.973225        -0.350889        -0.682930
 H        -4.046959        -2.208171         1.054287
 H        -2.446176        -2.652914         0.486528
 H        -3.113237        -2.045441         3.283569
 H        -0.978429        -0.755399         3.939853
 H        -0.140472         0.667416         2.329545
 H         0.115257        -0.689907         1.360545
