19
Iteration:    85
 O        -0.758796         0.858408        -0.014319
 C        -1.706340         0.332521         0.927389
 C        -3.211142         0.810492         0.902490
 C        -2.759610        -0.629038         0.593617
 C        -3.206177        -1.828876         1.347607
 C        -2.318781        -2.016170         2.645511
 O        -1.000593        -2.345332         2.128343
 C        -1.057618        -1.185416         2.833643
 C        -1.034826         0.286670         2.227740
 H        -1.127600         0.768769        -0.933512
 H        -3.496683         1.066585         1.889965
 H        -3.500331         1.449743         0.076800
 H        -2.623744        -0.813111        -0.593762
 H        -4.268605        -1.615879         1.605147
 H        -3.121157        -2.772663         0.723131
 H        -2.563402        -2.660731         3.513943
 H        -0.577746        -1.283748         3.818003
 H        -1.613510         0.805115         3.033691
 H        -0.008772         0.698647         2.129496
