19
Iteration:  1286charge 0 multiplicity 1
 O        -0.781648         0.929628        -0.080547
 C        -1.754617         0.388478         0.899482
 C        -3.123012         0.908996         1.011433
 C        -2.943320        -0.512304         0.563791
 C        -3.351319        -1.750875         1.435844
 C        -2.254007        -2.086813         2.441216
 O        -0.903296        -2.486644         2.213000
 C        -1.139366        -1.197532         2.898843
 C        -0.807638         0.024610         2.142758
 H        -1.136390         1.810896        -0.215693
 H        -3.428403         1.153870         2.053850
 H        -3.576431         1.709464         0.447630
 H        -3.042326        -0.646732        -0.540899
 H        -4.337907        -1.431034         1.958764
 H        -3.414835        -2.545940         0.681859
 H        -2.828695        -2.818793         3.155953
 H        -0.840125        -1.085177         3.891397
 H        -0.666366         0.825065         2.835827
 H         0.127061        -0.268453         1.710142
