19
Iteration:  3643
 O        -1.175113         0.989596        -0.247924
 C        -1.635413         0.472077         0.939704
 C        -2.948420         1.019667         1.418184
 C        -2.879683        -0.288034         0.663577
 C        -2.955692        -1.720561         1.087154
 C        -2.374113        -2.054106         2.516354
 O        -1.090625        -2.658408         2.413855
 C        -1.282751        -1.303258         2.896781
 C        -0.638878        -0.185938         1.904195
 H        -1.050586         1.969067        -0.116986
 H        -3.112703         1.029327         2.462122
 H        -3.528334         1.760243         0.817255
 H        -3.164917        -0.024219        -0.364155
 H        -4.030165        -2.067046         1.122309
 H        -2.586802        -2.411635         0.342992
 H        -3.083087        -2.483036         3.230096
 H        -1.064666        -1.024884         3.936952
 H        -0.123567         0.581968         2.391459
 H        -0.025159        -0.821635         1.237121
