19
Iteration:  2049
 O        -0.942387         0.991239        -0.104471
 C        -1.621886         0.427204         0.950285
 C        -3.026477         0.911373         1.132472
 C        -2.900334        -0.443977         0.565483
 C        -3.323193        -1.546950         1.489800
 C        -2.296295        -2.076397         2.528550
 O        -1.091819        -2.639490         2.073420
 C        -1.063328        -1.312740         2.827187
 C        -0.743869        -0.102960         2.077971
 H        -1.226843         1.936589        -0.150125
 H        -3.380192         1.147703         2.226257
 H        -3.360212         1.727689         0.520765
 H        -2.805212        -0.428761        -0.479801
 H        -4.148203        -1.123337         2.160198
 H        -3.684807        -2.376940         0.898311
 H        -2.940302        -2.593065         3.162186
 H        -0.466965        -1.547668         3.722711
 H        -0.580579         0.769245         2.765251
 H         0.251458        -0.325233         1.622806
