19
Iteration:   905
 O        -0.908912         1.009939        -0.202583
 C        -1.644507         0.300517         0.875393
 C        -3.034450         0.806969         1.233614
 C        -2.812525        -0.508706         0.509792
 C        -3.233454        -1.803925         1.363499
 C        -2.343933        -1.993333         2.527245
 O        -1.037658        -2.482337         2.190335
 C        -1.218529        -1.177182         2.968705
 C        -0.775309         0.053414         2.096821
 H        -1.405822         1.814959        -0.335637
 H        -3.221040         0.946148         2.278140
 H        -3.534611         1.576545         0.582376
 H        -3.052548        -0.510234        -0.569024
 H        -4.259659        -1.561128         1.672286
 H        -3.300432        -2.748040         0.789068
 H        -2.831394        -2.627537         3.262440
 H        -0.634640        -1.140240         3.968391
 H        -0.706675         0.968172         2.660267
 H         0.254457        -0.205110         1.802242
