19
Iteration:  3516
 O        -0.915191         1.058219        -0.177644
 C        -1.619641         0.418199         0.897047
 C        -2.958209         0.884590         1.347045
 C        -3.014755        -0.400050         0.584227
 C        -3.245435        -1.714854         1.303463
 C        -2.376545        -2.098304         2.446628
 O        -1.068297        -2.597062         2.265304
 C        -1.140512        -1.303125         2.948890
 C        -0.721108        -0.042771         1.938799
 H        -1.119638         1.993444        -0.244429
 H        -3.122309         0.907207         2.382709
 H        -3.201934         1.872594         0.925426
 H        -3.095683        -0.378474        -0.566996
 H        -4.265188        -1.737665         1.571278
 H        -3.293617        -2.569911         0.599123
 H        -2.831024        -2.566236         3.317049
 H        -0.828718        -1.400144         3.963595
 H        -0.411867         0.973083         2.365115
 H         0.224473        -0.311308         1.510286
