19
Iteration:  2292
 O        -0.820414         0.788465        -0.066376
 C        -1.692439         0.387432         0.952013
 C        -2.987212         1.075186         1.229754
 C        -3.038345        -0.326561         0.621033
 C        -3.386342        -1.570228         1.472032
 C        -2.214564        -2.119595         2.469914
 O        -0.997848        -2.616153         1.914074
 C        -1.048545        -1.420412         2.817127
 C        -0.849395         0.149832         2.169162
 H        -1.018294         0.119951        -0.758331
 H        -3.414344         1.434569         2.161705
 H        -3.362093         1.784615         0.507347
 H        -3.492693        -0.236561        -0.372607
 H        -4.238049        -1.399910         2.116236
 H        -3.587096        -2.386308         0.842832
 H        -2.566637        -2.633696         3.274789
 H        -0.466505        -1.581807         3.727037
 H        -0.983309         0.831801         3.037860
 H         0.236657         0.287502         1.938289
