19
Iteration:  3887
 O        -0.952287         0.986131        -0.089566
 C        -1.688451         0.408200         0.966247
 C        -3.100494         0.992744         1.147164
 C        -2.860934        -0.425530         0.525706
 C        -3.300037        -1.637338         1.405446
 C        -2.245990        -2.063636         2.546518
 O        -1.059356        -2.596535         2.093340
 C        -1.114378        -1.276036         2.914482
 C        -0.741271        -0.113296         2.050196
 H        -0.919402         1.920961         0.094579
 H        -3.543426         1.004417         2.159863
 H        -3.201651         1.840419         0.439273
 H        -3.165850        -0.579849        -0.475794
 H        -4.316115        -1.485845         1.838412
 H        -3.198720        -2.443206         0.748602
 H        -2.820404        -2.730414         3.239811
 H        -0.445687        -1.472438         3.772073
 H        -0.355549         0.714698         2.707556
 H         0.174513        -0.535442         1.561958
