19
Iteration:  3157charge 0 multiplicity 1
 O        -0.896680         0.835662        -0.203817
 C        -1.668589         0.310092         0.971582
 C        -2.896303         0.969535         1.320126
 C        -3.021675        -0.416523         0.708705
 C        -3.370687        -1.641231         1.431012
 C        -2.357554        -2.124482         2.459178
 O        -0.973357        -2.312242         1.883087
 C        -1.167169        -1.265381         2.810690
 C        -0.792716        -0.010722         2.202202
 H        -0.075500         0.281841        -0.179775
 H        -2.835196         1.140025         2.368371
 H        -3.228782         1.666856         0.499654
 H        -3.267001        -0.412694        -0.404002
 H        -4.386888        -1.659618         1.891357
 H        -3.338230        -2.468711         0.788218
 H        -2.784340        -2.890037         3.176606
 H        -0.935123        -1.447916         3.874807
 H        -0.904977         0.705793         3.042947
 H         0.374896        -0.045967         2.035449
