19
Iteration:  1672
 O        -0.994015         1.034867        -0.255904
 C        -1.629767         0.385145         0.933333
 C        -3.012282         0.841898         1.419802
 C        -2.882700        -0.369066         0.542166
 C        -3.060237        -1.695247         1.159597
 C        -2.409626        -2.021474         2.492637
 O        -1.123861        -2.575471         2.454149
 C        -1.159644        -1.274253         2.856619
 C        -0.656085        -0.067822         1.950078
 H        -1.753283         1.398748        -0.711378
 H        -3.164851         0.831942         2.521107
 H        -3.267472         1.848706         1.021577
 H        -3.245649        -0.407935        -0.508035
 H        -4.144460        -1.740182         1.372512
 H        -2.759141        -2.464164         0.353265
 H        -3.225771        -2.578823         3.119976
 H        -1.217624        -1.004779         3.913447
 H        -0.508513         0.720369         2.743966
 H         0.306386        -0.454634         1.574382
