19
Iteration:  1119
 O        -1.087436         1.107218        -0.154203
 C        -1.668266         0.325205         0.799118
 C        -3.115288         0.651263         1.403861
 C        -2.881927        -0.388531         0.384039
 C        -2.979677        -1.749995         1.100283
 C        -2.415445        -1.858359         2.604453
 O        -1.108656        -2.541240         2.574402
 C        -1.181594        -1.090495         2.905403
 C        -0.584569        -0.207321         1.841763
 H        -0.707000         1.941583         0.192754
 H        -3.484095         0.390294         2.455229
 H        -3.459937         1.656394         1.158352
 H        -3.380607        -0.440135        -0.554684
 H        -3.975192        -2.171952         1.189146
 H        -2.402324        -2.389506         0.433372
 H        -3.195201        -2.132900         3.323254
 H        -0.900937        -0.892756         3.928365
 H        -0.142271         0.668376         2.264475
 H         0.104473        -0.772860         1.244684
