19
Iteration:   356
 O        -1.099310         1.128600        -0.278936
 C        -1.673187         0.395311         0.756407
 C        -2.946464         0.812712         1.349773
 C        -2.829142        -0.491259         0.498537
 C        -2.954393        -1.914307         1.074634
 C        -2.421570        -1.977697         2.481926
 O        -0.977804        -2.449727         2.690693
 C        -1.409590        -1.065170         2.981116
 C        -0.738447        -0.220025         1.917618
 H        -0.822602         1.904238         0.229070
 H        -2.988347         0.922328         2.396635
 H        -3.425822         1.649164         0.793580
 H        -3.445337        -0.442442        -0.480307
 H        -4.024741        -2.255752         1.054772
 H        -2.437968        -2.714942         0.495153
 H        -2.951014        -2.567895         3.161913
 H        -1.351998        -0.707870         3.996659
 H        -0.395366         0.621398         2.442135
 H         0.151587        -0.649209         1.428023
