19
Iteration:  3222
 O        -0.837204         0.990316        -0.032803
 C        -1.687817         0.353603         0.939320
 C        -3.028227         1.019424         1.137523
 C        -2.923986        -0.456756         0.584475
 C        -3.311399        -1.570358         1.527844
 C        -2.278557        -2.145109         2.525566
 O        -1.085515        -2.597945         1.942737
 C        -1.000500        -1.322581         2.824338
 C        -0.884357        -0.008443         2.152377
 H        -0.949788         0.528805        -0.903296
 H        -3.418668         1.414271         2.088055
 H        -3.280719         1.787056         0.362687
 H        -3.102791        -0.545831        -0.531571
 H        -4.198010        -1.226443         2.105127
 H        -3.648130        -2.359507         0.897462
 H        -2.540401        -2.823237         3.363933
 H        -0.479002        -1.435622         3.781417
 H        -1.007858         0.733837         2.956914
 H         0.175670         0.298559         1.838326
