19
Iteration:  2728
 O        -1.134810         1.270485        -0.012131
 C        -1.593517         0.367733         0.917863
 C        -2.996545         0.899438         1.226859
 C        -2.791132        -0.418030         0.475726
 C        -3.258826        -1.687954         1.348383
 C        -2.420129        -1.959931         2.593966
 O        -1.122412        -2.672579         2.370019
 C        -1.078926        -1.314561         2.769977
 C        -0.617985        -0.227638         1.884830
 H        -0.612417         0.882847        -0.698124
 H        -3.450570         0.712773         2.275016
 H        -3.243541         1.810177         0.746821
 H        -3.127502        -0.487197        -0.610249
 H        -4.260611        -1.431739         1.545982
 H        -3.087965        -2.439621         0.583952
 H        -3.155119        -2.121151         3.458937
 H        -0.529106        -1.257917         3.729411
 H         0.016357         0.479172         2.464383
 H         0.047099        -0.526991         0.998689
