19
Iteration:   270charge 0 multiplicity 1
 O        -1.110353         1.251508        -0.131312
 C        -1.647537         0.304976         0.856975
 C        -3.050611         0.741004         1.176351
 C        -2.917589        -0.591607         0.467205
 C        -3.088012        -1.918742         1.127476
 C        -2.361041        -1.871454         2.537329
 O        -1.044368        -2.471900         2.658044
 C        -1.183619        -1.098430         2.934335
 C        -0.659482        -0.153663         1.876933
 H        -0.253017         1.542608         0.198718
 H        -3.600453         0.773299         2.075348
 H        -3.274287         1.560250         0.527520
 H        -3.155316        -0.485394        -0.672340
 H        -4.133841        -2.137589         1.209701
 H        -2.546251        -2.653833         0.477154
 H        -3.050254        -2.040718         3.347323
 H        -1.131491        -0.918299         3.990292
 H        -0.170917         0.669692         2.381983
 H         0.082743        -0.630911         1.150789
