19
Iteration:    81
 O        -0.771077         0.833443        -0.025995
 C        -1.687323         0.337764         0.908469
 C        -3.160331         0.774419         0.895393
 C        -2.784880        -0.625247         0.609856
 C        -3.207208        -1.826347         1.331125
 C        -2.290580        -2.032034         2.650300
 O        -1.002992        -2.358507         2.117296
 C        -1.077653        -1.189070         2.825580
 C        -1.050536         0.324347         2.271354
 H        -1.204665         0.873270        -0.875175
 H        -3.552924         1.197650         1.880378
 H        -3.437841         1.535490         0.057857
 H        -2.719988        -0.791387        -0.441752
 H        -4.234744        -1.630722         1.599382
 H        -3.143680        -2.686612         0.681106
 H        -2.588076        -2.686171         3.493206
 H        -0.595333        -1.188154         3.840957
 H        -1.602288         0.841444         3.109779
 H        -0.017784         0.858992         2.110066
