19
Iteration:  3201
 O        -0.937151         0.866601        -0.103876
 C        -1.641101         0.449908         1.012097
 C        -3.055912         1.056990         1.129565
 C        -2.937591        -0.359409         0.659550
 C        -3.337901        -1.586053         1.486721
 C        -2.352129        -2.077057         2.407010
 O        -0.936180        -2.559787         2.002714
 C        -1.076544        -1.381578         2.743071
 C        -0.781351        -0.003516         2.230240
 H        -0.642346         0.055076        -0.581947
 H        -3.503143         1.062467         2.138123
 H        -3.359756         1.848516         0.384427
 H        -3.203138        -0.573710        -0.410362
 H        -4.265918        -1.415682         2.084166
 H        -3.546967        -2.386027         0.837760
 H        -2.586920        -2.761711         3.232756
 H        -0.881263        -1.621753         3.797933
 H        -0.747675         0.718788         3.069212
 H         0.310030         0.069212         1.859454
