19
Iteration:  3533charge 0 multiplicity 1
 O        -1.011738         1.080849        -0.168844
 C        -1.668628         0.437980         0.927978
 C        -3.091715         0.968283         1.259644
 C        -2.853138        -0.384641         0.518666
 C        -3.265911        -1.665689         1.265472
 C        -2.372063        -2.045439         2.537452
 O        -1.045765        -2.681839         2.349230
 C        -1.095449        -1.294946         2.783962
 C        -0.584031        -0.161482         2.007530
 H        -1.021955         2.016947         0.022375
 H        -3.448386         0.825396         2.331524
 H        -3.658370         1.750082         0.757482
 H        -3.190852        -0.296016        -0.489980
 H        -4.332863        -1.559849         1.723665
 H        -3.197179        -2.561967         0.608412
 H        -2.928779        -2.568008         3.342193
 H        -0.837642        -1.240156         3.900374
 H        -0.201819         0.538437         2.741840
 H         0.316174        -0.451101         1.384268
