19
Iteration:  1222charge 0 multiplicity 1
 O        -1.036497         0.959915        -0.157276
 C        -1.600241         0.371649         0.988139
 C        -3.180529         0.788471         1.215149
 C        -2.758525        -0.499473         0.567471
 C        -3.201403        -1.806201         1.234078
 C        -2.403256        -1.934892         2.551909
 O        -1.068811        -2.438481         2.284545
 C        -1.190826        -1.169026         2.768128
 C        -0.631685        -0.015758         2.073900
 H        -0.492332         1.700793         0.094775
 H        -3.435833         0.743413         2.253029
 H        -3.428434         1.572881         0.524715
 H        -3.080066        -0.559613        -0.496306
 H        -4.244026        -1.894026         1.571859
 H        -2.862166        -2.617711         0.607416
 H        -2.911418        -2.531416         3.337804
 H        -0.825069        -1.145036         3.776940
 H        -0.363765         0.839235         2.777656
 H         0.323627        -0.176491         1.548790
