19
Iteration:  1624charge 0 multiplicity 1
 O        -0.954945         0.977250        -0.162389
 C        -1.640046         0.339817         0.848966
 C        -3.043425         0.954032         1.305684
 C        -2.906561        -0.383116         0.540335
 C        -3.193818        -1.752397         1.249038
 C        -2.355737        -2.090027         2.566711
 O        -1.007592        -2.493846         2.302778
 C        -1.276282        -1.184118         2.897292
 C        -0.682139        -0.128155         1.948478
 H        -0.700124         1.841960         0.281739
 H        -3.320223         0.842970         2.366170
 H        -3.599641         1.790105         0.854935
 H        -3.260347        -0.370911        -0.490367
 H        -4.279607        -1.647772         1.395171
 H        -2.870690        -2.556571         0.565994
 H        -2.929057        -2.557427         3.295639
 H        -0.880040        -1.217985         3.895225
 H        -0.426300         0.689707         2.665095
 H         0.247773        -0.531808         1.462526
