19
Iteration:  4971charge 0 multiplicity 1
 O        -1.134267         1.010008        -0.224326
 C        -1.598074         0.372217         0.923726
 C        -2.918008         0.898888         1.406216
 C        -2.854667        -0.447709         0.511071
 C        -3.337135        -1.674023         1.333321
 C        -2.359347        -2.098192         2.419821
 O        -0.988490        -2.528728         2.199273
 C        -1.164615        -1.257442         2.880733
 C        -0.656884        -0.052391         2.051925
 H        -0.607858         1.817976         0.074139
 H        -3.238823         0.732277         2.407764
 H        -3.338676         1.817009         0.996034
 H        -3.096155        -0.319681        -0.613751
 H        -4.313663        -1.408746         1.621558
 H        -3.466969        -2.619783         0.752912
 H        -2.921769        -2.827704         3.123751
 H        -0.989464        -1.268764         3.990380
 H        -0.413004         0.826194         2.737236
 H         0.417571        -0.257761         1.798786
