19
Iteration:  4562charge 0 multiplicity 1
 O        -0.945664         1.080893        -0.121851
 C        -1.677759         0.401983         0.934943
 C        -3.010366         0.979090         1.293564
 C        -2.937130        -0.424181         0.534617
 C        -3.183706        -1.721058         1.294280
 C        -2.379744        -2.056164         2.574105
 O        -1.006037        -2.604176         2.297166
 C        -1.189512        -1.255383         2.783340
 C        -0.750045        -0.112799         1.894583
 H        -0.476655         1.805085         0.368449
 H        -3.420473         0.791098         2.353047
 H        -3.620796         1.738914         0.867336
 H        -3.130556        -0.486647        -0.521144
 H        -4.304545        -1.702160         1.552306
 H        -3.155081        -2.565924         0.607696
 H        -2.811652        -2.584738         3.365160
 H        -0.689288        -1.226339         3.736797
 H        -0.281857         0.674332         2.440944
 H         0.061157        -0.715985         1.528059
