19
Iteration:  4959
 O        -1.096126         1.021017        -0.263962
 C        -1.647033         0.379821         0.987270
 C        -3.040647         0.909989         1.307614
 C        -2.874301        -0.391979         0.637905
 C        -3.327933        -1.688567         1.262148
 C        -2.394478        -2.082705         2.433811
 O        -0.982205        -2.518263         2.188063
 C        -1.113687        -1.354907         2.902409
 C        -0.588158        -0.049556         2.096144
 H        -0.519075         1.728719        -0.010190
 H        -3.338656         0.873536         2.284435
 H        -3.173085         1.867086         0.730793
 H        -2.973060        -0.527707        -0.483314
 H        -4.205594        -1.576686         1.883877
 H        -3.471302        -2.462194         0.460104
 H        -2.810798        -2.651698         3.334538
 H        -0.759691        -1.325280         3.993523
 H        -0.574113         0.813337         2.820742
 H         0.313276        -0.359554         1.483981
