19
Iteration:  2173
 O        -0.866420         0.824956        -0.201452
 C        -1.654940         0.461804         0.934199
 C        -3.007817         1.081247         1.214108
 C        -2.894017        -0.367974         0.733468
 C        -3.304386        -1.587105         1.522185
 C        -2.312072        -2.125771         2.494321
 O        -0.978358        -2.561626         1.928004
 C        -1.086613        -1.430103         2.757943
 C        -0.902121         0.047799         2.289534
 H        -1.154084         0.245287        -0.956723
 H        -3.292301         1.480275         2.175755
 H        -3.471737         1.788919         0.421849
 H        -3.262278        -0.378836        -0.362162
 H        -4.322112        -1.321146         1.973555
 H        -3.465746        -2.387640         0.772641
 H        -2.825956        -2.863564         3.161393
 H        -0.550862        -1.596581         3.704168
 H        -0.958453         0.826265         3.040230
 H         0.178178         0.123462         1.908815
