19
Iteration:  4694charge 0 multiplicity 1
 O        -1.134156         1.009291        -0.242715
 C        -1.556299         0.538149         0.998111
 C        -3.047779         0.975657         1.151712
 C        -2.836476        -0.403240         0.601130
 C        -3.262774        -1.652406         1.345324
 C        -2.311799        -2.113021         2.554184
 O        -1.065205        -2.656072         2.156449
 C        -1.082907        -1.384602         2.874066
 C        -0.695180        -0.047172         2.148235
 H        -0.595854         1.804763        -0.158327
 H        -3.538647         1.128817         2.119697
 H        -3.503818         1.739734         0.396334
 H        -3.014580        -0.530380        -0.515238
 H        -4.347058        -1.534219         1.544994
 H        -2.987565        -2.594972         0.875065
 H        -2.836419        -2.748619         3.270658
 H        -0.558365        -1.593576         3.837776
 H        -0.842090         0.672071         2.956503
 H         0.333386         0.130391         1.793889
