19
Iteration:  4023
 O        -0.973756         0.964345        -0.198980
 C        -1.620239         0.346286         0.905948
 C        -2.953952         0.971930         1.158961
 C        -2.914525        -0.469155         0.579192
 C        -3.385109        -1.612163         1.555101
 C        -2.260718        -2.215056         2.451933
 O        -0.977516        -2.435103         2.002516
 C        -1.237257        -1.294666         2.846229
 C        -0.788679        -0.035400         2.207379
 H        -0.208379         1.413088         0.268791
 H        -3.110365         1.115448         2.190030
 H        -3.242618         1.770633         0.461552
 H        -3.126658        -0.404504        -0.555603
 H        -4.219388        -1.379704         2.240884
 H        -3.649820        -2.423561         0.948013
 H        -2.438254        -2.981532         3.161661
 H        -0.848947        -1.335232         3.889315
 H        -0.841239         0.689297         2.990913
 H         0.233018        -0.143519         1.893908
