19
Iteration:   547
 O        -0.997149         1.017987        -0.179121
 C        -1.658303         0.307568         0.824665
 C        -3.095162         0.862545         1.089213
 C        -2.901245        -0.526116         0.461824
 C        -3.142392        -1.758151         1.340820
 C        -2.244894        -2.166239         2.489543
 O        -0.899746        -2.423541         2.334316
 C        -1.236630        -1.137692         2.985149
 C        -0.911332         0.114236         2.152618
 H        -0.117486         0.611041        -0.432307
 H        -3.264431         0.797410         2.149817
 H        -3.386295         1.806297         0.473667
 H        -3.139698        -0.568472        -0.608167
 H        -4.096553        -1.472244         1.857831
 H        -3.442825        -2.608479         0.669415
 H        -2.825969        -2.733305         3.328312
 H        -0.906052        -1.281793         4.019366
 H        -0.872061         0.902826         2.844177
 H         0.086833        -0.220010         1.905984
