19
Iteration:   491
 O        -0.972945         0.942176        -0.087863
 C        -1.757728         0.334040         0.913454
 C        -3.109582         0.786795         1.156697
 C        -2.819217        -0.533699         0.478533
 C        -3.055705        -1.817005         1.256434
 C        -2.307578        -1.842893         2.520780
 O        -0.988669        -2.462922         2.320509
 C        -1.208639        -1.128391         3.026773
 C        -0.803374         0.011997         1.995325
 H        -1.486125         1.178156        -0.847754
 H        -3.510251         0.927229         2.183484
 H        -3.424507         1.679420         0.599233
 H        -3.063135        -0.523831        -0.545824
 H        -4.125912        -2.095912         1.199963
 H        -2.599720        -2.646686         0.634192
 H        -2.928275        -2.399254         3.326543
 H        -0.790106        -1.013174         4.080901
 H        -0.722049         0.787913         2.707111
 H         0.185984        -0.198804         1.591230
