19
Iteration:  2298
 O        -0.830250         0.736220        -0.093126
 C        -1.728753         0.400523         0.971839
 C        -2.982301         1.150761         1.225047
 C        -2.961220        -0.317518         0.621795
 C        -3.328687        -1.570780         1.488333
 C        -2.202323        -2.118653         2.478347
 O        -1.021473        -2.594320         1.896383
 C        -1.035966        -1.371446         2.818972
 C        -0.886378         0.056954         2.202161
 H        -1.027276         0.364969        -1.010384
 H        -3.362565         1.203810         2.281118
 H        -3.620228         1.827100         0.568569
 H        -3.522994        -0.345278        -0.343557
 H        -4.238347        -1.462531         2.138090
 H        -3.526067        -2.370826         0.670909
 H        -2.733819        -2.832338         3.282768
 H        -0.560421        -1.526650         3.803338
 H        -1.000298         0.894353         2.928284
 H         0.143915         0.304580         1.962290
