19
Iteration:  2446
 O        -0.849712         0.951580        -0.089699
 C        -1.651919         0.303986         0.916864
 C        -3.040483         0.936754         1.289465
 C        -2.915567        -0.426430         0.614782
 C        -3.373509        -1.654607         1.445968
 C        -2.343616        -2.100839         2.482254
 O        -1.006082        -2.437586         2.004693
 C        -1.155993        -1.257495         2.838835
 C        -0.738331         0.034951         2.086421
 H        -1.035745         0.392456        -0.841863
 H        -3.275365         0.755040         2.333504
 H        -3.307598         1.782147         0.659855
 H        -3.158621        -0.392916        -0.447783
 H        -4.350685        -1.412298         1.870573
 H        -3.514868        -2.508867         0.822947
 H        -2.726947        -2.735261         3.198273
 H        -0.620345        -1.587373         3.763552
 H        -0.583286         0.855470         2.847617
 H         0.307563        -0.308359         1.872912
