19
Iteration:   782charge 0 multiplicity 1
 O        -0.948324         0.808825        -0.085489
 C        -1.709171         0.350144         0.957135
 C        -3.047470         0.892511         0.962200
 C        -2.848836        -0.593646         0.490503
 C        -3.327396        -1.627700         1.510114
 C        -2.239611        -2.126715         2.498513
 O        -0.941489        -2.237937         2.005319
 C        -1.093620        -1.266543         2.933913
 C        -0.949338         0.049109         2.275397
 H        -0.037744         1.028876         0.034635
 H        -3.653247         1.175202         1.901950
 H        -3.182867         1.579926         0.140935
 H        -2.849077        -0.696902        -0.582915
 H        -4.146064        -1.299988         2.202418
 H        -3.749392        -2.428354         0.926986
 H        -2.556232        -2.965208         3.111271
 H        -0.669903        -1.395786         4.018451
 H        -1.011806         0.898159         2.898752
 H         0.083077        -0.062427         1.908158
