19
Iteration:   983charge 0 multiplicity 1
 O        -1.116255         1.203239        -0.311210
 C        -1.637276         0.332666         0.829046
 C        -3.059443         0.845358         1.372798
 C        -2.841727        -0.407183         0.459698
 C        -3.033674        -1.774469         1.149078
 C        -2.388584        -2.073193         2.541331
 O        -0.959161        -2.533080         2.576769
 C        -1.327301        -1.182680         3.003131
 C        -0.707808        -0.201391         1.895719
 H        -0.485821         1.723577         0.174947
 H        -3.313546         0.592982         2.401954
 H        -3.315054         1.731987         0.939740
 H        -3.110524        -0.443771        -0.586328
 H        -4.101729        -1.728011         1.246072
 H        -2.713458        -2.446462         0.334409
 H        -2.984714        -2.533045         3.331342
 H        -1.342633        -0.753225         4.108729
 H        -0.108335         0.604840         2.207486
 H         0.031569        -0.846073         1.406480
