19
Iteration:  3853charge 0 multiplicity 1
 O        -0.999105         1.040217        -0.155881
 C        -1.599987         0.441187         0.950822
 C        -3.064621         0.946072         1.319844
 C        -2.810332        -0.484999         0.547816
 C        -3.247594        -1.746406         1.313158
 C        -2.432641        -2.006033         2.568977
 O        -1.035783        -2.604840         2.218447
 C        -1.134257        -1.271254         2.687990
 C        -0.739584        -0.073981         2.015789
 H        -0.206480         1.532145         0.155121
 H        -3.414557         0.992833         2.334591
 H        -3.223939         1.956047         0.826945
 H        -3.357144        -0.481767        -0.414957
 H        -4.335780        -1.670530         1.492825
 H        -3.235447        -2.666109         0.799375
 H        -2.900595        -2.390413         3.504084
 H        -0.594348        -1.254350         3.643184
 H        -0.766061         0.608689         2.923695
 H         0.342432        -0.160452         1.691888
