19
Iteration:  3208
 O        -0.897654         0.909240        -0.069536
 C        -1.670340         0.402687         0.994508
 C        -3.077737         1.049886         1.115366
 C        -2.923408        -0.339678         0.684866
 C        -3.344136        -1.583188         1.495765
 C        -2.268284        -2.032389         2.450932
 O        -0.949392        -2.615598         1.967489
 C        -1.105330        -1.357794         2.772657
 C        -0.800012        -0.011186         2.180827
 H        -0.764064         0.241835        -0.736803
 H        -3.423174         0.966972         2.134863
 H        -3.205405         1.673310         0.212802
 H        -3.172973        -0.575300        -0.356927
 H        -4.227502        -1.363658         2.106154
 H        -3.611135        -2.546434         0.893577
 H        -2.881671        -2.604569         3.193443
 H        -0.678649        -1.617536         3.727796
 H        -1.040413         0.710879         2.973167
 H         0.240712        -0.027442         1.959718
