19
Iteration:  2938
 O        -0.973631         1.035774        -0.116233
 C        -1.638958         0.319974         0.969827
 C        -2.970175         0.912991         1.222735
 C        -2.883595        -0.397901         0.607709
 C        -3.327991        -1.647120         1.470060
 C        -2.379719        -2.038881         2.502128
 O        -1.123105        -2.472763         1.954421
 C        -1.063439        -1.314675         2.858873
 C        -0.701273        -0.047517         2.135912
 H        -0.358129         0.404637        -0.579205
 H        -3.401230         0.840420         2.252716
 H        -3.439848         1.559910         0.489728
 H        -3.073965        -0.583231        -0.436256
 H        -4.411802        -1.444448         1.895810
 H        -3.353635        -2.520392         0.828086
 H        -2.607001        -2.692263         3.283561
 H        -0.521630        -1.509977         3.884997
 H        -0.665157         0.859860         2.752831
 H         0.361178        -0.263317         1.822388
