19
Iteration:  4459
 O        -0.986300         1.161827        -0.139313
 C        -1.724721         0.406868         0.825515
 C        -2.965475         0.959203         1.423920
 C        -2.951104        -0.359352         0.599812
 C        -3.111446        -1.805337         1.158435
 C        -2.432602        -2.005100         2.577172
 O        -1.040845        -2.606816         2.446403
 C        -1.151899        -1.249255         2.811885
 C        -0.702799        -0.225347         1.757858
 H        -0.357117         1.431693         0.549439
 H        -3.306939         0.815386         2.480117
 H        -3.422613         1.708112         0.819422
 H        -3.643217        -0.305666        -0.277555
 H        -4.173579        -1.967733         1.272880
 H        -2.642099        -2.453769         0.393359
 H        -2.994402        -2.594691         3.377452
 H        -1.010318        -0.894986         3.923031
 H        -0.199032         0.487787         2.405531
 H         0.065934        -0.671116         1.108291
