19
Iteration:  3510charge 0 multiplicity 1
 O        -0.894142         1.040467        -0.181147
 C        -1.639488         0.344768         0.884658
 C        -2.891179         0.919325         1.373590
 C        -3.004282        -0.421018         0.608352
 C        -3.230523        -1.716493         1.272187
 C        -2.372231        -2.073005         2.478934
 O        -1.057218        -2.555101         2.222255
 C        -1.187655        -1.243649         2.872962
 C        -0.756854        -0.060131         1.983430
 H        -1.237971         1.976352        -0.221500
 H        -3.108022         0.904593         2.507869
 H        -3.395796         1.780530         0.891530
 H        -3.193169        -0.338025        -0.400003
 H        -4.297774        -1.705909         1.771638
 H        -3.071736        -2.666994         0.682347
 H        -2.930825        -2.714141         3.207100
 H        -0.879106        -1.343859         3.952436
 H        -0.505070         0.833546         2.525286
 H         0.235579        -0.400613         1.549904
