19
Iteration:  3476charge 0 multiplicity 1
 O        -0.907050         0.842515        -0.225786
 C        -1.660526         0.390131         0.996196
 C        -2.952785         0.949910         1.403469
 C        -2.917693        -0.399995         0.685764
 C        -3.266373        -1.748081         1.254062
 C        -2.386873        -2.064218         2.470601
 O        -1.075889        -2.466650         2.102635
 C        -1.201534        -1.215126         2.843627
 C        -0.668267         0.020581         2.104271
 H        -1.282195         1.737861        -0.452142
 H        -3.230468         0.867686         2.478340
 H        -3.452019         1.769186         0.807192
 H        -2.927907        -0.321056        -0.390331
 H        -4.363351        -1.855951         1.628185
 H        -3.160589        -2.594446         0.433864
 H        -2.874271        -2.885326         3.019056
 H        -0.763287        -1.239895         3.866960
 H        -0.339598         0.754853         2.812992
 H         0.175490        -0.354750         1.487136
