19
Iteration:  1685charge 0 multiplicity 1
 O        -1.007522         1.132085        -0.167327
 C        -1.644687         0.406641         0.842528
 C        -2.916267         0.877850         1.390758
 C        -2.833002        -0.369583         0.558200
 C        -3.120846        -1.727245         1.186575
 C        -2.405655        -2.020794         2.456938
 O        -1.055428        -2.642002         2.479686
 C        -1.279999        -1.201960         2.924465
 C        -0.710807        -0.168651         1.902021
 H        -1.601810         1.215893        -0.959071
 H        -3.252360         0.712167         2.339934
 H        -3.406148         1.757287         0.833706
 H        -3.165078        -0.247787        -0.467715
 H        -4.200807        -1.844602         1.402084
 H        -2.959554        -2.571773         0.509386
 H        -2.964059        -2.482369         3.359527
 H        -0.858579        -1.151852         3.940796
 H        -0.399706         0.736105         2.453960
 H         0.158499        -0.426088         1.282020
