19
Iteration:  2675
 O        -1.054640         1.055220        -0.198820
 C        -1.674802         0.386493         0.909907
 C        -2.861212         0.918930         1.547855
 C        -2.918397        -0.318642         0.614173
 C        -3.166222        -1.752236         1.192571
 C        -2.413922        -2.042849         2.454674
 O        -1.062848        -2.566219         2.342958
 C        -1.275507        -1.149988         2.834009
 C        -0.638452        -0.172484         1.869759
 H        -0.417769         0.439602        -0.546582
 H        -3.082191         0.548688         2.634196
 H        -3.318361         1.863857         1.282445
 H        -3.301479        -0.261848        -0.498980
 H        -4.270728        -1.809017         1.320514
 H        -2.703313        -2.469657         0.416172
 H        -3.095013        -2.549839         3.151634
 H        -1.071873        -0.968001         3.949504
 H        -0.242590         0.630502         2.481255
 H         0.163253        -0.579613         1.250685
