19
Iteration:   583charge 0 multiplicity 1
 O        -0.958868         0.850811        -0.089148
 C        -1.706867         0.378895         0.989040
 C        -3.136285         0.803056         0.970926
 C        -2.755494        -0.613460         0.575999
 C        -3.241151        -1.807721         1.356045
 C        -2.328675        -1.993574         2.538877
 O        -0.940190        -2.335467         2.089959
 C        -1.190601        -1.164571         2.865056
 C        -0.852228         0.129367         2.231243
 H        -0.091151         1.252675         0.235803
 H        -3.444370         1.007110         2.025702
 H        -3.514312         1.508137         0.317735
 H        -2.874184        -0.675680        -0.542569
 H        -4.137073        -1.590339         1.887890
 H        -3.399121        -2.737208         0.888404
 H        -2.828582        -2.512012         3.378943
 H        -0.792809        -1.137280         3.834720
 H        -0.591818         0.998838         2.807544
 H        -0.002439        -0.052437         1.639648
