19
Iteration:  4092charge 0 multiplicity 1
 O        -0.941765         0.865586        -0.210295
 C        -1.632033         0.418400         0.990016
 C        -2.993373         1.018390         1.171297
 C        -2.898089        -0.448298         0.646208
 C        -3.340881        -1.619351         1.393094
 C        -2.307800        -2.163437         2.508519
 O        -0.993426        -2.562791         2.022484
 C        -1.083897        -1.323305         2.786750
 C        -0.790267         0.025280         2.272759
 H        -1.223562         1.805099        -0.357667
 H        -3.152604         1.292130         2.214777
 H        -3.414744         1.692729         0.444085
 H        -3.123891        -0.508622        -0.370037
 H        -4.351955        -1.436837         1.738654
 H        -3.463793        -2.451097         0.639241
 H        -2.709522        -2.584730         3.461242
 H        -0.826981        -1.310543         3.842707
 H        -1.017401         0.684019         3.058080
 H         0.216455         0.160007         1.919611
