19
Iteration:    33charge 0 multiplicity 1
 O        -0.852914         0.620694        -0.077749
 C        -1.737392         0.364867         0.960482
 C        -3.148332         0.835833         0.831062
 C        -2.861268        -0.596176         0.487015
 C        -3.296482        -1.611470         1.461650
 C        -2.179224        -2.215098         2.416366
 O        -0.728505        -2.176467         2.170104
 C        -1.254715        -1.206817         2.975469
 C        -1.077867         0.240253         2.292744
 H        -0.225560         1.368088         0.226724
 H        -3.826616         1.147747         1.607587
 H        -3.380014         1.360881        -0.040800
 H        -3.008338        -0.764677        -0.597721
 H        -4.058812        -1.262879         2.184034
 H        -3.701224        -2.471921         0.905294
 H        -2.365758        -3.142975         2.939544
 H        -0.774089        -1.216133         3.938317
 H        -1.227177         1.062130         2.945592
 H        -0.051395         0.164255         2.132330
