19
Iteration:  2127charge 0 multiplicity 1
 O        -0.785060         0.741906        -0.092751
 C        -1.706612         0.309594         0.958243
 C        -2.976228         0.958649         1.251819
 C        -3.008833        -0.331550         0.703126
 C        -3.380886        -1.617161         1.433782
 C        -2.276257        -2.069029         2.462983
 O        -0.985256        -2.304431         1.905888
 C        -1.107966        -1.299518         2.842569
 C        -0.799530        -0.097799         2.156801
 H        -1.386975         0.834419        -0.815027
 H        -3.384201         0.904906         2.355645
 H        -3.499182         1.788864         0.673118
 H        -3.210135        -0.295961        -0.432352
 H        -4.340906        -1.441988         2.071033
 H        -3.556666        -2.401213         0.694680
 H        -2.740457        -2.718100         3.174562
 H        -0.726090        -1.435840         3.885032
 H        -0.577719         0.779432         2.856100
 H         0.239263        -0.160841         1.628090
