19
Iteration:  3526
 O        -0.972529         1.065445        -0.164916
 C        -1.685024         0.464479         0.882900
 C        -3.066044         0.922029         1.285184
 C        -2.883271        -0.357804         0.522156
 C        -3.309395        -1.710407         1.288304
 C        -2.350230        -2.080803         2.520206
 O        -1.054228        -2.655634         2.323139
 C        -1.109247        -1.333053         2.883159
 C        -0.572561        -0.089251         1.978350
 H        -1.069298         2.032084        -0.092314
 H        -3.259097         0.764516         2.304074
 H        -3.396247         1.845629         0.800990
 H        -3.319302        -0.384811        -0.561280
 H        -4.328355        -1.656601         1.690227
 H        -3.226581        -2.373645         0.454518
 H        -2.975055        -2.517934         3.306949
 H        -0.793362        -1.203346         3.919069
 H        -0.317578         0.681607         2.790843
 H         0.229446        -0.441947         1.351214
