19
Iteration:  3745
 O        -1.093655         1.153677        -0.121490
 C        -1.629219         0.421164         0.879851
 C        -2.963280         0.894820         1.361531
 C        -2.861632        -0.366614         0.479483
 C        -3.090578        -1.732824         1.203892
 C        -2.407613        -1.995910         2.579769
 O        -1.152160        -2.717945         2.404511
 C        -1.132584        -1.294122         2.861142
 C        -0.625090        -0.144686         1.849732
 H        -1.256405         2.087684        -0.075376
 H        -3.340037         0.650435         2.372960
 H        -3.413676         1.804389         0.879646
 H        -3.262893        -0.356298        -0.561644
 H        -4.178794        -1.613346         1.471361
 H        -2.890575        -2.609046         0.614882
 H        -3.054645        -2.316824         3.420310
 H        -0.730148        -1.045023         3.850762
 H        -0.242845         0.624900         2.460709
 H         0.224759        -0.495229         1.275870
