19
Iteration:  1258charge 0 multiplicity 1
 O        -1.042636         1.062444        -0.191831
 C        -1.648197         0.339199         0.873919
 C        -3.039410         0.894159         1.065189
 C        -2.768499        -0.534039         0.470420
 C        -3.173283        -1.661188         1.419588
 C        -2.373818        -2.104995         2.566272
 O        -1.014676        -2.592554         2.295596
 C        -1.110280        -1.230793         2.870576
 C        -0.823254         0.002943         2.117594
 H        -0.931239         1.975576         0.041612
 H        -3.505409         1.088921         2.070687
 H        -3.342305         1.746577         0.437667
 H        -2.978497        -0.521411        -0.576640
 H        -4.206968        -1.505231         1.776716
 H        -3.403860        -2.472578         0.671888
 H        -2.750848        -2.759675         3.341950
 H        -0.603000        -1.124504         3.929704
 H        -0.997554         0.699448         3.024289
 H         0.284146        -0.025592         1.833219
