19
Iteration:  4522
 O        -1.060036         1.099118        -0.191567
 C        -1.585328         0.364306         0.883280
 C        -2.907893         0.795335         1.401203
 C        -2.888707        -0.414917         0.586400
 C        -3.278782        -1.750426         1.192647
 C        -2.412844        -1.977839         2.505363
 O        -1.091213        -2.562931         2.303959
 C        -1.187949        -1.154698         2.826776
 C        -0.578725        -0.176642         2.015244
 H        -1.106592         2.052925        -0.087767
 H        -3.237965         0.457077         2.422652
 H        -3.393873         1.719050         1.155850
 H        -3.144502        -0.340190        -0.484828
 H        -4.376577        -1.834306         1.292288
 H        -2.973016        -2.561730         0.477132
 H        -2.959306        -2.472851         3.412376
 H        -0.994123        -0.970152         3.895364
 H        -0.187493         0.672986         2.670069
 H         0.278943        -0.433289         1.335060
