19
Iteration:  2301
 O        -0.831278         0.720223        -0.107868
 C        -1.733108         0.408609         0.962556
 C        -2.999759         1.178151         1.227085
 C        -2.942564        -0.322642         0.646205
 C        -3.299279        -1.574792         1.493680
 C        -2.236091        -2.131675         2.481164
 O        -1.025220        -2.577463         1.893168
 C        -1.021086        -1.334201         2.811395
 C        -0.895009         0.011434         2.221289
 H        -1.071094         0.458026        -1.006853
 H        -3.277337         1.098316         2.295883
 H        -3.604325         1.846423         0.573562
 H        -3.433419        -0.378865        -0.363045
 H        -4.204149        -1.476902         2.074663
 H        -3.496162        -2.328728         0.728102
 H        -2.707025        -2.820717         3.161006
 H        -0.592110        -1.515581         3.818397
 H        -1.091826         0.859520         2.938788
 H         0.120226         0.241952         1.906488
