19
Iteration:  1584charge 0 multiplicity 1
 O        -1.073649         1.114467        -0.101634
 C        -1.668126         0.407074         0.931652
 C        -3.054716         0.932854         1.131003
 C        -2.802577        -0.464482         0.530310
 C        -3.234770        -1.675717         1.319362
 C        -2.388059        -2.106673         2.529185
 O        -1.016782        -2.627654         2.304465
 C        -1.188000        -1.224283         2.849924
 C        -0.612232        -0.086810         2.008256
 H        -0.146966         0.920461        -0.192312
 H        -3.607352         0.795028         2.146242
 H        -3.458633         1.624495         0.439515
 H        -2.839646        -0.524364        -0.581344
 H        -4.134845        -1.428278         1.885875
 H        -3.596913        -2.478001         0.562300
 H        -2.852973        -2.657505         3.508493
 H        -0.972419        -1.002926         3.898921
 H        -0.586614         0.849074         2.583681
 H         0.426435        -0.178769         1.726570
