19
Iteration:  3934charge 0 multiplicity 1
 O        -0.883542         0.915846        -0.242129
 C        -1.621122         0.379466         0.939478
 C        -2.973658         0.943172         1.295615
 C        -2.916628        -0.398361         0.576288
 C        -3.280502        -1.685179         1.435075
 C        -2.312509        -2.183162         2.508133
 O        -1.033218        -2.511020         2.000442
 C        -1.192375        -1.290731         2.906854
 C        -0.792791         0.046202         2.164875
 H        -1.276440         1.817135        -0.424060
 H        -3.101749         0.980500         2.420218
 H        -3.344700         1.737351         0.651056
 H        -3.095133        -0.398866        -0.521842
 H        -4.222424        -1.389755         1.919220
 H        -3.412076        -2.518494         0.823857
 H        -2.845719        -2.783743         3.246842
 H        -1.011715        -1.400519         4.022839
 H        -0.738372         0.869828         2.845866
 H         0.203087        -0.043666         1.774621
