19
Iteration:   100charge 0 multiplicity 1
 O        -0.769660         0.918891         0.007589
 C        -1.747618         0.434512         0.889169
 C        -3.205270         0.788451         0.906073
 C        -2.764670        -0.641533         0.427062
 C        -3.197621        -1.788380         1.458181
 C        -2.268201        -1.966369         2.592114
 O        -0.956210        -2.371633         2.119055
 C        -1.161646        -1.153141         2.921927
 C        -0.961366         0.120838         2.244493
 H        -0.856684         0.429738        -0.804241
 H        -3.896096         0.733754         1.773449
 H        -3.711618         1.461788         0.232467
 H        -2.901292        -0.853870        -0.555800
 H        -4.258945        -1.760010         1.783749
 H        -3.091736        -2.743020         0.964787
 H        -2.779135        -2.574240         3.315996
 H        -0.688872        -1.082816         3.906680
 H        -1.155206         0.902854         2.929635
 H         0.047749         0.297651         1.980326
