19
Iteration:  4506
 O        -1.173777         1.034810        -0.219102
 C        -1.629804         0.367983         1.004665
 C        -2.963082         0.896290         1.473429
 C        -2.779271        -0.395361         0.497380
 C        -3.103707        -1.705078         1.171963
 C        -2.439027        -1.974009         2.447094
 O        -1.129784        -2.592311         2.391383
 C        -1.190888        -1.318720         2.855016
 C        -0.568081        -0.077964         1.899126
 H        -1.245096         1.973671        -0.161224
 H        -3.054035         0.761327         2.520173
 H        -3.303033         1.806682         0.889485
 H        -2.964572        -0.269284        -0.562957
 H        -4.189448        -1.650551         1.511098
 H        -2.956960        -2.602078         0.570993
 H        -3.086937        -2.360431         3.150517
 H        -0.852977        -1.315372         3.899621
 H        -0.289048         0.759237         2.494970
 H         0.282869        -0.613772         1.566523
