19
Iteration:  3995charge 0 multiplicity 1
 O        -1.005046         0.817191        -0.224716
 C        -1.690021         0.447593         1.000228
 C        -3.088779         0.986125         1.216790
 C        -2.842629        -0.365566         0.618261
 C        -3.326536        -1.538264         1.399596
 C        -2.304403        -2.122054         2.449754
 O        -0.910884        -2.523785         2.060614
 C        -1.117825        -1.382961         2.855659
 C        -0.797671        -0.028271         2.154788
 H        -0.153708         1.181385         0.125901
 H        -3.420453         1.150668         2.285559
 H        -3.441208         1.725803         0.535263
 H        -2.877413        -0.360050        -0.422745
 H        -4.275151        -1.381466         1.968223
 H        -3.639474        -2.393042         0.650758
 H        -2.606228        -2.836093         3.270224
 H        -0.839687        -1.406784         3.907334
 H        -0.923171         0.690117         3.041080
 H         0.250849         0.061045         1.729365
