19
Iteration:   475charge 0 multiplicity 1
 O        -0.916042         1.000882        -0.102430
 C        -1.680055         0.274824         0.880800
 C        -3.150887         0.779433         1.206262
 C        -2.880690        -0.527677         0.458079
 C        -3.119238        -1.816783         1.192956
 C        -2.393050        -2.032160         2.566972
 O        -0.956861        -2.358606         2.461629
 C        -1.179235        -1.087605         2.864088
 C        -0.720786         0.000228         2.005798
 H        -1.538875         1.570717        -0.597633
 H        -3.515639         0.610450         2.193116
 H        -3.655887         1.618879         0.644275
 H        -3.049827        -0.529531        -0.676006
 H        -4.197945        -1.908617         1.483511
 H        -2.961023        -2.695349         0.552111
 H        -2.925332        -2.521223         3.326035
 H        -1.064195        -0.999166         3.913708
 H        -0.453434         0.981949         2.596773
 H         0.230145        -0.392259         1.546348
