19
Iteration:  4565
 O        -0.961783         1.074547        -0.146318
 C        -1.682380         0.406074         0.929357
 C        -3.039928         0.975273         1.288292
 C        -2.937921        -0.413129         0.539480
 C        -3.165811        -1.701324         1.293985
 C        -2.384760        -2.044287         2.546066
 O        -1.000268        -2.621803         2.302309
 C        -1.183209        -1.275489         2.802434
 C        -0.721050        -0.108164         1.930635
 H        -0.517783         1.746130         0.444364
 H        -3.498185         0.901219         2.312302
 H        -3.612626         1.773266         0.837265
 H        -3.079167        -0.442081        -0.559768
 H        -4.252698        -1.741670         1.652875
 H        -3.174479        -2.573390         0.586005
 H        -2.910862        -2.587144         3.398436
 H        -0.695603        -1.326350         3.739842
 H        -0.198330         0.746957         2.449268
 H         0.116945        -0.716033         1.496742
