19
Iteration:  2272
 O        -0.890380         0.889681        -0.126360
 C        -1.669058         0.367544         1.026386
 C        -2.989052         1.083427         1.122250
 C        -2.968513        -0.396715         0.710561
 C        -3.415180        -1.600570         1.548994
 C        -2.302974        -2.088251         2.446454
 O        -1.014097        -2.505781         1.938136
 C        -1.036888        -1.378240         2.697612
 C        -0.796585        -0.039695         2.191345
 H        -0.242758         0.194935        -0.500794
 H        -3.323741         1.227662         2.147935
 H        -3.326942         1.881096         0.532079
 H        -3.085069        -0.623124        -0.315186
 H        -4.248034        -1.412439         2.281655
 H        -3.753023        -2.314205         0.819140
 H        -2.685901        -2.832719         3.132404
 H        -0.654999        -1.418458         3.717075
 H        -0.934388         0.612334         3.047407
 H         0.271164         0.265157         2.033919
