19
Iteration:  1860charge 0 multiplicity 1
 O        -1.172979         1.228836        -0.249715
 C        -1.633552         0.395786         0.943489
 C        -2.899173         0.910782         1.365543
 C        -2.840681        -0.409819         0.623363
 C        -3.122886        -1.679751         1.241020
 C        -2.429416        -1.985488         2.508011
 O        -1.172751        -2.651905         2.394515
 C        -1.161128        -1.283784         2.856295
 C        -0.582229        -0.226997         1.891397
 H        -0.237557         1.066574        -0.265742
 H        -3.378725         0.739336         2.315272
 H        -3.359283         1.558875         0.755124
 H        -3.148259        -0.296882        -0.399684
 H        -4.204062        -1.843841         1.377286
 H        -2.639383        -2.356942         0.504113
 H        -3.053746        -2.436792         3.322249
 H        -0.943860        -1.041479         3.898379
 H        -0.229492         0.603398         2.525861
 H         0.147360        -0.773846         1.323961
