19
Iteration:  2493
 O        -0.935689         0.886075        -0.212634
 C        -1.715502         0.359733         0.902635
 C        -2.983772         1.024342         1.355332
 C        -2.948889        -0.318490         0.658304
 C        -3.229336        -1.659598         1.314991
 C        -2.376669        -2.099901         2.510584
 O        -1.009162        -2.521700         2.101082
 C        -1.112270        -1.297583         2.884042
 C        -0.756245        -0.020779         2.123350
 H        -1.421368         0.463701        -0.997271
 H        -3.009550         0.764393         2.424685
 H        -3.239182         1.941658         0.746504
 H        -3.030719        -0.144057        -0.472524
 H        -4.304083        -1.826607         1.500704
 H        -2.965451        -2.347354         0.496072
 H        -2.852988        -2.876334         3.286120
 H        -0.897721        -1.311312         3.982235
 H        -0.663861         0.904268         2.870432
 H         0.379954        -0.157508         1.774456
