19
Iteration:  2103
 O        -0.773073         0.834550        -0.086792
 C        -1.746571         0.401156         0.921228
 C        -3.013537         1.005962         1.253796
 C        -2.894220        -0.443255         0.657510
 C        -3.345414        -1.651594         1.501423
 C        -2.318149        -2.104113         2.532516
 O        -1.083853        -2.535748         1.943335
 C        -1.106283        -1.301290         2.737893
 C        -0.745781         0.075057         2.147555
 H        -1.352216         1.235226        -0.801593
 H        -3.293044         1.149259         2.378648
 H        -3.358738         1.774342         0.611817
 H        -3.288987        -0.442675        -0.335957
 H        -4.319632        -1.435572         2.002952
 H        -3.442075        -2.513185         0.820419
 H        -2.852665        -2.698921         3.220864
 H        -0.669545        -1.505397         3.726961
 H        -0.519832         0.978171         2.837238
 H         0.259383        -0.020398         1.624544
