19
Iteration:  2147charge 0 multiplicity 1
 O        -0.924777         0.711211        -0.118159
 C        -1.606175         0.377302         0.976894
 C        -2.951557         1.058101         1.284696
 C        -2.956146        -0.403880         0.669009
 C        -3.391573        -1.664013         1.469891
 C        -2.275122        -2.125657         2.395299
 O        -0.975077        -2.440171         1.918403
 C        -1.189080        -1.276134         2.837912
 C        -0.737692         0.033084         2.207068
 H        -1.370611         0.615382        -1.005576
 H        -3.266004         1.416688         2.346816
 H        -3.156824         2.008112         0.806039
 H        -3.107538        -0.350130        -0.405339
 H        -4.274924        -1.282358         1.961139
 H        -3.611682        -2.418183         0.727258
 H        -2.709905        -2.924801         2.921113
 H        -0.738736        -1.447470         3.833138
 H        -0.982311         0.951786         2.852025
 H         0.316558         0.191325         1.884217
