19
Iteration:  3014
 O        -1.036592         0.814829        -0.142387
 C        -1.662256         0.363902         1.031410
 C        -2.924609         1.054916         1.233283
 C        -2.876548        -0.341843         0.736405
 C        -3.317754        -1.715543         1.364391
 C        -2.343173        -2.061071         2.445200
 O        -1.004555        -2.445003         1.954873
 C        -1.145462        -1.330544         2.841621
 C        -0.777042         0.022598         2.162527
 H        -0.563949         0.157449        -0.687837
 H        -3.026472         1.103560         2.362184
 H        -3.104700         1.852350         0.568793
 H        -3.077712        -0.352457        -0.304565
 H        -4.342601        -1.412422         1.674824
 H        -3.326645        -2.576317         0.735448
 H        -2.577565        -2.875165         3.039603
 H        -0.732614        -1.511789         3.855092
 H        -0.945745         0.873291         2.823894
 H         0.317881         0.009939         1.968060
