19
Iteration:  3075charge 0 multiplicity 1
 O        -0.964066         1.094438        -0.059462
 C        -1.583231         0.360513         0.949486
 C        -3.001164         0.922950         1.087000
 C        -2.884730        -0.461027         0.623991
 C        -3.335184        -1.552157         1.564850
 C        -2.322963        -2.106409         2.504857
 O        -1.061973        -2.607586         1.944462
 C        -1.100720        -1.319740         2.794496
 C        -0.783566        -0.040369         2.131834
 H        -0.345047         0.431903        -0.381336
 H        -3.621450         1.228709         1.941747
 H        -3.171328         1.676667         0.323225
 H        -3.202413        -0.465754        -0.390037
 H        -4.061855        -1.166171         2.285957
 H        -3.869414        -2.447156         1.074047
 H        -2.701177        -2.847046         3.344430
 H        -0.632557        -1.474320         3.792026
 H        -0.740157         0.780336         2.920488
 H         0.304990        -0.058327         1.860500
