19
Iteration:   674charge 0 multiplicity 1
 O        -0.671456         0.706296        -0.036823
 C        -1.796536         0.423494         1.047478
 C        -3.173000         0.865075         0.983707
 C        -2.838147        -0.575646         0.605245
 C        -3.278601        -1.710494         1.523606
 C        -2.170041        -2.092823         2.403363
 O        -0.941874        -2.253956         1.973239
 C        -1.227833        -1.149491         2.951188
 C        -0.992766         0.105305         2.183739
 H        -1.165377         0.879252        -0.852804
 H        -3.811539         0.929480         1.865022
 H        -3.474892         1.561798         0.128224
 H        -2.869063        -0.774837        -0.456681
 H        -4.143570        -1.545083         2.139952
 H        -3.547391        -2.474306         0.799564
 H        -2.559802        -2.821842         3.080493
 H        -0.643118        -1.324014         3.949345
 H        -0.925909         1.011571         2.884338
 H         0.094521         0.029913         1.919238
