19
Iteration:  4389
 O        -1.199548         1.226026        -0.249228
 C        -1.563825         0.412443         0.857321
 C        -2.874131         0.911866         1.472838
 C        -2.842915        -0.365813         0.521160
 C        -3.072255        -1.831687         1.193159
 C        -2.443686        -1.955175         2.528844
 O        -1.239825        -2.735149         2.468097
 C        -1.101413        -1.278187         2.853457
 C        -0.582382        -0.184390         1.878504
 H        -1.140479         2.157437        -0.104644
 H        -3.211858         0.553654         2.402174
 H        -3.417300         1.855374         1.080037
 H        -3.471388        -0.196363        -0.363027
 H        -4.082955        -2.191630         1.142206
 H        -2.376191        -2.469888         0.624929
 H        -3.101754        -2.042535         3.432761
 H        -1.127541        -1.089279         3.867793
 H        -0.128094         0.724699         2.360787
 H         0.251310        -0.577999         1.213709
