19
Iteration:  2448charge 0 multiplicity 1
 O        -0.856652         0.933579        -0.082394
 C        -1.632463         0.304474         0.930506
 C        -3.051122         0.929612         1.296554
 C        -2.908781        -0.426918         0.634122
 C        -3.382494        -1.659208         1.424947
 C        -2.333444        -2.083490         2.479738
 O        -0.998720        -2.430751         1.997069
 C        -1.165883        -1.259959         2.846242
 C        -0.735645         0.044348         2.074360
 H        -1.004226         0.431302        -0.935823
 H        -3.157212         0.787043         2.351820
 H        -3.345827         1.827427         0.700251
 H        -3.163984        -0.483241        -0.464901
 H        -4.373120        -1.413823         1.827913
 H        -3.587853        -2.507943         0.788435
 H        -2.790449        -2.779209         3.232218
 H        -0.696074        -1.556635         3.810481
 H        -0.594034         0.881695         2.848040
 H         0.325962        -0.318738         1.784640
