19
Iteration:  4034charge 0 multiplicity 1
 O        -0.903528         0.924522        -0.139699
 C        -1.664966         0.346103         0.959673
 C        -2.985265         0.927093         1.158300
 C        -2.940886        -0.457462         0.680733
 C        -3.367456        -1.674048         1.486753
 C        -2.300650        -2.170908         2.450277
 O        -1.027986        -2.452168         1.940895
 C        -1.110022        -1.245833         2.900806
 C        -0.752569         0.004468         2.111434
 H        -0.295681         1.612655         0.178105
 H        -3.380953         1.127395         2.128099
 H        -3.214854         1.694907         0.420813
 H        -3.129652        -0.689397        -0.437383
 H        -4.242178        -1.298430         2.047117
 H        -3.771070        -2.343698         0.793017
 H        -2.736921        -2.714850         3.250384
 H        -0.833344        -1.517693         3.934624
 H        -0.926607         0.867904         2.749472
 H         0.304234         0.036137         1.947179
