19
Iteration:  4116
 O        -0.857408         0.947489        -0.221297
 C        -1.667520         0.292322         0.905170
 C        -2.981155         1.053149         1.250207
 C        -2.938034        -0.418784         0.596990
 C        -3.316455        -1.669205         1.501484
 C        -2.310944        -2.241517         2.441564
 O        -0.943904        -2.456364         2.082942
 C        -1.189716        -1.276019         2.858245
 C        -0.836870        -0.027155         2.160605
 H        -0.818573         1.854920         0.060762
 H        -3.240902         1.207986         2.296152
 H        -3.310735         1.846372         0.494792
 H        -3.283989        -0.489002        -0.425135
 H        -4.224245        -1.419605         2.026490
 H        -3.696360        -2.544626         0.835250
 H        -2.766701        -3.167319         2.927502
 H        -0.882345        -1.188568         3.882359
 H        -0.760981         0.856842         2.728466
 H         0.107659        -0.281958         1.626976
