19
Iteration:   919charge 0 multiplicity 1
 O        -0.904481         1.046627        -0.167853
 C        -1.673660         0.362742         0.836285
 C        -3.074824         0.797432         1.173417
 C        -2.872996        -0.564181         0.490960
 C        -3.167730        -1.735882         1.300342
 C        -2.411879        -1.963256         2.644006
 O        -1.111726        -2.407221         2.253677
 C        -1.043549        -1.250880         2.914007
 C        -0.738528        -0.045359         2.065479
 H        -1.283402         1.949687        -0.286978
 H        -3.276243         0.544210         2.221624
 H        -3.533760         1.671251         0.877513
 H        -3.068295        -0.677236        -0.583398
 H        -4.198976        -1.911694         1.514070
 H        -2.873475        -2.653570         0.724187
 H        -2.892177        -2.506629         3.489548
 H        -0.954915        -1.406263         4.070154
 H        -0.696187         0.849449         2.785166
 H         0.242647        -0.201224         1.536147
