19
Iteration:   141
 O        -1.080168         0.996806        -0.223758
 C        -1.673561         0.415395         0.948893
 C        -2.991421         0.884013         0.949267
 C        -2.762902        -0.617332         0.499955
 C        -3.231476        -1.780485         1.366184
 C        -2.278836        -2.133259         2.502367
 O        -0.808323        -2.389131         2.356407
 C        -1.337022        -1.161824         2.937538
 C        -0.902686         0.061401         2.170945
 H        -0.096389         1.008024        -0.074491
 H        -3.531847         0.902600         1.888011
 H        -3.197921         1.596021         0.256897
 H        -2.910078        -0.812072        -0.636098
 H        -4.274953        -1.570871         1.776104
 H        -3.458253        -2.668094         0.707001
 H        -2.676847        -2.751184         3.340269
 H        -1.408975        -1.110764         4.001860
 H        -0.839597         0.903718         2.981892
 H         0.153281        -0.137573         1.951352
