19
Iteration:  4021charge 0 multiplicity 1
 O        -0.981204         0.965344        -0.205740
 C        -1.606929         0.342019         0.901353
 C        -2.952325         0.979465         1.163362
 C        -2.901080        -0.463095         0.574843
 C        -3.371892        -1.607796         1.550521
 C        -2.290864        -2.207562         2.459801
 O        -0.946988        -2.437917         2.003846
 C        -1.246494        -1.310504         2.839869
 C        -0.808596        -0.030839         2.213592
 H        -0.205842         1.387207         0.238775
 H        -3.154487         1.129667         2.226076
 H        -3.278412         1.838693         0.474919
 H        -3.158412        -0.436638        -0.547239
 H        -4.231884        -1.401565         2.260213
 H        -3.707641        -2.481154         1.016764
 H        -2.504402        -3.016301         3.130088
 H        -0.796428        -1.317333         3.885213
 H        -0.814303         0.739666         3.043375
 H         0.243720        -0.211137         1.864172
