19
Iteration:  2830charge 0 multiplicity 1
 O        -1.061495         0.928402        -0.224377
 C        -1.581330         0.439150         0.969315
 C        -2.933969         1.002264         1.443112
 C        -2.835290        -0.380016         0.637653
 C        -3.232974        -1.772726         1.202885
 C        -2.416713        -2.013349         2.471681
 O        -1.055130        -2.481904         2.183800
 C        -1.153917        -1.250385         2.791150
 C        -0.712507        -0.122123         2.136695
 H        -1.051922         0.100590        -0.805912
 H        -3.136420         1.004138         2.503165
 H        -3.500396         1.914196         1.041449
 H        -3.179061        -0.260051        -0.358694
 H        -4.212984        -1.690452         1.346508
 H        -3.297585        -2.446872         0.366732
 H        -2.828153        -2.591049         3.237665
 H        -0.857199        -1.315361         3.882726
 H        -0.529786         0.747121         2.727690
 H         0.264871        -0.343200         1.696323
