19
Iteration:  4879charge 0 multiplicity 1
 O        -1.078008         0.924729        -0.188600
 C        -1.602114         0.327010         0.944641
 C        -2.930189         0.915037         1.310360
 C        -2.775002        -0.415750         0.530955
 C        -3.342769        -1.630622         1.383778
 C        -2.328193        -2.143449         2.489996
 O        -1.011502        -2.468463         2.068725
 C        -1.208976        -1.234018         2.807140
 C        -0.760745        -0.019684         2.167966
 H        -1.138581         1.862692        -0.150873
 H        -3.290400         0.777236         2.428667
 H        -3.264895         1.764781         0.768057
 H        -2.846100        -0.617529        -0.510734
 H        -4.085203        -1.487821         2.189719
 H        -3.643019        -2.340522         0.609347
 H        -2.603349        -2.861685         3.215746
 H        -0.686504        -1.378975         3.819806
 H        -0.516224         0.715078         2.969429
 H         0.283865        -0.226502         1.767580
