19
Iteration:  1156
 O        -1.146656         1.040334        -0.288516
 C        -1.656797         0.517052         0.883764
 C        -3.019732         0.972546         1.359514
 C        -2.796452        -0.455710         0.565803
 C        -3.020661        -1.940694         1.145225
 C        -2.378065        -2.099697         2.444882
 O        -1.072650        -2.642607         2.611335
 C        -1.259208        -1.134932         2.843826
 C        -0.681255        -0.025245         1.952012
 H        -0.820713         1.983025        -0.155171
 H        -3.124892         1.048925         2.409144
 H        -3.330130         1.710138         0.565569
 H        -3.294735        -0.127659        -0.365738
 H        -4.129780        -1.997055         1.139137
 H        -2.738039        -2.778790         0.494258
 H        -3.009247        -2.376670         3.304117
 H        -1.033050        -0.937145         3.853574
 H        -0.071483         0.721122         2.607445
 H         0.203536        -0.524545         1.468194
