19
Iteration:  1412
 O        -0.940242         0.907200        -0.089578
 C        -1.626589         0.347137         0.993855
 C        -3.061471         0.857956         0.984076
 C        -2.841843        -0.583553         0.599864
 C        -3.322302        -1.616839         1.489691
 C        -2.320011        -2.075141         2.549140
 O        -0.982313        -2.403946         1.961721
 C        -1.146388        -1.308219         2.832316
 C        -0.870764         0.099769         2.242828
 H        -0.027530         1.279792         0.040998
 H        -3.585497         0.909816         1.931891
 H        -3.130623         1.554825         0.110954
 H        -3.005084        -0.770128        -0.478588
 H        -4.175878        -1.094526         2.028147
 H        -3.662267        -2.363981         0.748131
 H        -2.544850        -2.844315         3.230972
 H        -0.721319        -1.460292         3.910326
 H        -0.961542         0.960391         3.012256
 H         0.250347         0.211804         2.019947
