19
Iteration:  1049
 O        -1.202804         1.177318        -0.242135
 C        -1.731703         0.415607         0.845574
 C        -2.979048         0.790308         1.415271
 C        -2.815040        -0.416512         0.461770
 C        -2.900489        -1.794168         0.978448
 C        -2.408698        -1.896002         2.564256
 O        -1.112288        -2.661635         2.711337
 C        -1.198414        -1.154721         2.977972
 C        -0.646362        -0.224497         1.790760
 H        -1.019136         2.133250        -0.019424
 H        -3.166146         0.588568         2.426341
 H        -3.345152         1.656004         0.894838
 H        -3.322064        -0.193085        -0.485969
 H        -3.955288        -2.017329         0.862293
 H        -2.240821        -2.601926         0.579772
 H        -3.213232        -1.976600         3.302951
 H        -0.987469        -0.870922         4.110987
 H         0.062537         0.502949         2.076496
 H        -0.219195        -1.021783         1.166849
