19
Iteration:  4307charge 0 multiplicity 1
 O        -1.139542         1.172680        -0.211343
 C        -1.635500         0.348224         0.920367
 C        -2.946541         0.860453         1.453084
 C        -2.866027        -0.373740         0.523133
 C        -3.118122        -1.740260         1.156784
 C        -2.342213        -1.989037         2.530709
 O        -1.116894        -2.702664         2.411815
 C        -1.222893        -1.152430         2.819461
 C        -0.644301        -0.174643         1.886615
 H        -0.295606         1.675134        -0.088065
 H        -2.999178         0.719031         2.516874
 H        -3.424490         1.788539         1.054560
 H        -3.235521        -0.231870        -0.469893
 H        -4.228429        -1.705731         1.446304
 H        -3.073748        -2.693408         0.616997
 H        -3.013749        -2.432468         3.266643
 H        -0.853522        -0.894668         3.884640
 H        -0.263394         0.670374         2.514691
 H         0.192702        -0.668625         1.386289
