19
Iteration:  3079
 O        -0.981358         1.099928        -0.062202
 C        -1.620973         0.399575         0.952268
 C        -3.005266         0.932069         1.046508
 C        -2.900460        -0.458250         0.619698
 C        -3.348862        -1.566487         1.559058
 C        -2.335242        -2.109060         2.510497
 O        -1.049723        -2.647393         1.931918
 C        -1.073851        -1.313640         2.838190
 C        -0.746424        -0.024283         2.147594
 H        -0.433505         0.436112        -0.576616
 H        -3.543203         1.298848         1.983163
 H        -3.005194         1.735355         0.303016
 H        -3.115217        -0.588335        -0.456054
 H        -4.041567        -1.248348         2.360869
 H        -3.836603        -2.395519         1.088952
 H        -2.814651        -2.782310         3.276065
 H        -0.673780        -1.554572         3.821651
 H        -0.655841         0.714879         2.965483
 H         0.391797        -0.081787         2.041004
