19
Iteration:  1210charge 0 multiplicity 1
 O        -1.007101         0.926579        -0.102556
 C        -1.699915         0.309880         0.933280
 C        -3.058900         0.839894         1.260018
 C        -2.875797        -0.510878         0.570100
 C        -3.170599        -1.827799         1.219267
 C        -2.371563        -1.978711         2.443810
 O        -1.046256        -2.436481         2.301650
 C        -1.157652        -1.088678         2.911790
 C        -0.672299        -0.009854         1.954314
 H        -0.602363         1.730636         0.330936
 H        -3.389148         0.773925         2.265666
 H        -3.531306         1.742571         0.836032
 H        -2.782903        -0.446387        -0.537764
 H        -4.268065        -1.870055         1.256069
 H        -2.969064        -2.653616         0.566017
 H        -2.865649        -2.258526         3.379664
 H        -0.994625        -1.029500         3.932768
 H        -0.479686         0.897387         2.564900
 H         0.218428        -0.446088         1.527721
