19
Iteration:  3948charge 0 multiplicity 1
 O        -0.897343         0.858076        -0.165308
 C        -1.638586         0.384688         0.880073
 C        -2.988744         1.017570         1.250291
 C        -2.883831        -0.445429         0.721729
 C        -3.237783        -1.700315         1.383767
 C        -2.399947        -2.045985         2.529620
 O        -1.037084        -2.422883         2.027424
 C        -1.126363        -1.337030         2.817226
 C        -0.818631        -0.049409         2.156071
 H        -1.060601         1.774759        -0.330831
 H        -3.249478         1.017622         2.251514
 H        -3.498090         1.861316         0.715531
 H        -3.317106        -0.464046        -0.370193
 H        -4.279132        -1.725432         1.681200
 H        -3.215905        -2.543670         0.537467
 H        -2.672226        -2.813922         3.211598
 H        -0.463396        -1.470650         3.644596
 H        -0.997312         0.737037         2.858114
 H         0.239666        -0.136401         1.955035
