19
Iteration:   975
 O        -1.110621         1.200872        -0.296957
 C        -1.648660         0.360543         0.879137
 C        -3.079000         0.809660         1.303884
 C        -2.833717        -0.365756         0.436134
 C        -3.102816        -1.748068         1.144524
 C        -2.380010        -2.072407         2.599260
 O        -0.927359        -2.563683         2.590012
 C        -1.332104        -1.212734         2.949151
 C        -0.663002        -0.165068         1.882929
 H        -0.502022         1.859792         0.020612
 H        -3.466971         0.786881         2.324254
 H        -3.372906         1.709952         0.750802
 H        -2.969483        -0.322910        -0.658532
 H        -4.155823        -1.865043         1.386442
 H        -2.910124        -2.605008         0.444963
 H        -2.876647        -2.600485         3.444945
 H        -1.195849        -1.020937         4.102904
 H        -0.113393         0.593732         2.522845
 H         0.043035        -0.908971         1.453837
