19
Iteration:  2149
 O        -0.926312         0.717338        -0.125129
 C        -1.620460         0.386937         0.977769
 C        -2.939279         1.055988         1.272119
 C        -2.938040        -0.379581         0.698208
 C        -3.386755        -1.672109         1.462113
 C        -2.262545        -2.145148         2.398161
 O        -0.985682        -2.450010         1.922156
 C        -1.189965        -1.265292         2.822936
 C        -0.744243         0.023452         2.202732
 H        -1.427867         0.566740        -0.990347
 H        -3.272621         1.350984         2.349223
 H        -3.168871         2.051345         0.731163
 H        -3.044357        -0.341639        -0.451462
 H        -4.301891        -1.282260         2.018548
 H        -3.644204        -2.428897         0.732288
 H        -2.724743        -2.907293         2.981573
 H        -0.763020        -1.414125         3.842217
 H        -1.025274         0.885257         2.890882
 H         0.353051         0.274324         1.948009
