19
Iteration:  3877
 O        -0.931172         1.040485        -0.102552
 C        -1.636759         0.421023         0.937888
 C        -3.066139         0.977205         1.108981
 C        -2.923312        -0.447424         0.671030
 C        -3.211831        -1.687148         1.380573
 C        -2.341863        -2.051292         2.528118
 O        -1.139836        -2.640512         2.077461
 C        -1.036566        -1.278547         2.945954
 C        -0.738082        -0.052646         2.012772
 H        -0.513105         1.810439         0.266629
 H        -3.633304         0.851140         2.111614
 H        -3.631921         1.752119         0.530679
 H        -3.130736        -0.616661        -0.324266
 H        -4.313965        -1.789314         1.628579
 H        -3.117507        -2.493586         0.761398
 H        -2.919635        -2.501320         3.387342
 H        -0.398422        -1.470688         3.861282
 H        -0.476898         0.830543         2.596143
 H         0.129600        -0.257186         1.372895
