19
Iteration:  2613
 O        -1.013493         1.175441        -0.126409
 C        -1.593893         0.429264         0.891428
 C        -2.996279         0.934606         1.353749
 C        -2.913683        -0.426461         0.630128
 C        -3.099757        -1.676113         1.249596
 C        -2.369967        -2.019131         2.536782
 O        -1.163429        -2.681201         2.312776
 C        -1.177948        -1.252487         2.838184
 C        -0.702187        -0.188843         1.896427
 H        -0.850290         0.737477        -0.944709
 H        -3.041613         0.877048         2.477140
 H        -3.450270         1.721462         0.824041
 H        -3.348963        -0.333471        -0.374653
 H        -4.185803        -1.748335         1.511725
 H        -3.011845        -2.479611         0.550391
 H        -2.760514        -2.465808         3.411085
 H        -0.644425        -1.189499         3.808988
 H        -0.460043         0.730688         2.504134
 H         0.227495        -0.273507         1.320009
