19
Iteration:  2249
 O        -0.964362         0.906437        -0.188264
 C        -1.651201         0.394275         1.032552
 C        -2.985331         0.935806         1.157155
 C        -2.834817        -0.463437         0.645130
 C        -3.289937        -1.529240         1.585071
 C        -2.316853        -2.184173         2.557516
 O        -1.123398        -2.462210         1.777818
 C        -1.143047        -1.352455         2.862647
 C        -0.807029         0.020797         2.239662
 H        -0.038031         0.772270        -0.248419
 H        -3.282292         1.323429         2.113806
 H        -3.099122         1.779566         0.457600
 H        -3.060950        -0.677646        -0.412781
 H        -4.099169        -1.007778         2.153011
 H        -3.780069        -2.259741         1.001517
 H        -2.778892        -3.012738         2.991884
 H        -0.469164        -1.567147         3.710992
 H        -0.493478         0.911606         2.794529
 H         0.238952        -0.138616         1.855527
