19
Iteration:  4157
 O        -1.012443         0.857382        -0.173815
 C        -1.757165         0.360707         1.048552
 C        -3.063357         0.967906         1.265375
 C        -2.835966        -0.468892         0.582104
 C        -3.282239        -1.627808         1.314626
 C        -2.328378        -2.062450         2.537462
 O        -1.048342        -2.504641         2.074185
 C        -1.082111        -1.290412         2.780276
 C        -0.685989         0.051860         2.111975
 H        -0.332215         1.400482         0.287906
 H        -3.544568         0.953115         2.208151
 H        -3.150571         1.881368         0.618689
 H        -2.844238        -0.495935        -0.461522
 H        -4.336356        -1.574285         1.614571
 H        -3.335197        -2.434435         0.531744
 H        -2.702330        -2.480816         3.505156
 H        -0.708927        -1.546290         3.799831
 H        -0.530682         0.701341         2.999508
 H         0.277994        -0.132026         1.615405
