19
Iteration:  3118
 O        -0.919837         0.901085        -0.082631
 C        -1.651929         0.476044         1.015652
 C        -3.075863         0.961310         1.179021
 C        -2.887393        -0.402828         0.626378
 C        -3.232502        -1.548917         1.485358
 C        -2.290748        -2.063592         2.504248
 O        -1.049975        -2.574658         1.950636
 C        -1.155894        -1.372874         2.785970
 C        -0.780601        -0.026012         2.151594
 H        -0.884768         0.181126        -0.708290
 H        -3.405994         1.302335         2.180496
 H        -3.209907         1.762986         0.478585
 H        -2.991151        -0.559423        -0.421939
 H        -4.175473        -1.193047         1.921541
 H        -3.564730        -2.421768         0.803899
 H        -2.676095        -2.751182         3.332562
 H        -0.489811        -1.428146         3.663178
 H        -0.988297         0.734386         2.929669
 H         0.208439        -0.035962         1.768351
