19
Iteration:  2068charge 0 multiplicity 1
 O        -0.972962         1.048117        -0.178424
 C        -1.639130         0.332479         0.933343
 C        -3.006664         1.059778         1.144084
 C        -2.827414        -0.452587         0.528598
 C        -3.268117        -1.525702         1.543891
 C        -2.388694        -2.084859         2.584917
 O        -1.081733        -2.656461         2.051098
 C        -0.998783        -1.442104         2.828577
 C        -0.739438        -0.074939         2.152123
 H        -1.428539         1.796749        -0.659372
 H        -3.496860         1.018301         2.087309
 H        -3.229066         1.931617         0.531504
 H        -3.172325        -0.484942        -0.494342
 H        -4.240079        -1.257986         1.883455
 H        -3.571642        -2.416182         0.887096
 H        -2.772074        -2.729290         3.438225
 H        -0.659421        -1.570952         3.844091
 H        -0.992039         0.677569         3.009106
 H         0.268695         0.106094         1.736378
