19
Iteration:  4842charge 0 multiplicity 1
 O        -0.946146         0.919906        -0.128283
 C        -1.666726         0.406498         0.981378
 C        -3.073880         0.977990         1.190554
 C        -2.980600        -0.463586         0.639348
 C        -3.300957        -1.706254         1.426089
 C        -2.283738        -2.070440         2.511333
 O        -1.019872        -2.533054         2.032548
 C        -1.070871        -1.277577         2.797360
 C        -0.705002        -0.018269         2.114756
 H        -0.477734         1.680463         0.219480
 H        -3.459293         1.107698         2.153274
 H        -3.440091         1.778109         0.484779
 H        -3.140821        -0.382551        -0.475991
 H        -4.410235        -1.686313         1.794183
 H        -3.434072        -2.409632         0.551477
 H        -2.777038        -2.494563         3.420394
 H        -0.649326        -1.431019         3.754883
 H        -0.632539         0.810482         2.811462
 H         0.264715        -0.257971         1.700011
