19
Iteration:   366
 O        -1.029574         1.096456        -0.264195
 C        -1.669158         0.377830         0.799817
 C        -3.042230         0.811567         1.355488
 C        -2.897802        -0.491048         0.476182
 C        -2.914251        -1.930716         1.102126
 C        -2.404907        -2.013716         2.508899
 O        -1.023490        -2.448673         2.650449
 C        -1.344682        -1.087945         2.951576
 C        -0.723999        -0.081666         1.910231
 H        -0.488076         1.826386         0.007726
 H        -3.172660         0.512977         2.370541
 H        -3.724177         1.603865         0.966041
 H        -3.314964        -0.328875        -0.594803
 H        -4.011706        -2.166132         1.177024
 H        -2.375775        -2.583373         0.399108
 H        -3.131811        -2.165240         3.238293
 H        -1.405682        -0.824159         3.998049
 H        -0.110990         0.686961         2.319312
 H        -0.048735        -0.843026         1.513201
