19
Iteration:  1372
 O        -0.876614         0.861448        -0.085494
 C        -1.712392         0.455890         0.927512
 C        -3.102099         0.996610         1.001564
 C        -2.880859        -0.482596         0.579963
 C        -3.245319        -1.597324         1.502153
 C        -2.315590        -2.199222         2.536089
 O        -0.864330        -2.430108         2.017716
 C        -1.133045        -1.294937         2.882001
 C        -0.962880         0.066914         2.178017
 H        -0.153388         0.256069         0.093993
 H        -3.608367         1.133023         2.023390
 H        -3.372450         1.559740         0.136129
 H        -3.176669        -0.627488        -0.482184
 H        -4.218064        -1.460770         1.966972
 H        -3.529133        -2.506549         0.923317
 H        -2.768686        -2.959258         3.211672
 H        -0.787385        -1.418920         3.891280
 H        -0.998601         0.860879         2.892678
 H         0.105850         0.016299         1.950692
