19
Iteration:  2795charge 0 multiplicity 1
 O        -1.005166         1.111801        -0.162038
 C        -1.627450         0.323105         0.859103
 C        -2.919940         0.898019         1.380520
 C        -2.969599        -0.401407         0.634112
 C        -3.285749        -1.753175         1.231393
 C        -2.360527        -2.001473         2.485075
 O        -1.103360        -2.529979         2.229643
 C        -1.171087        -1.234271         2.817077
 C        -0.635025        -0.098904         2.037672
 H        -0.342202         0.531778        -0.647653
 H        -2.973090         0.724948         2.467560
 H        -3.335410         1.824011         0.888614
 H        -3.466302        -0.269636        -0.345061
 H        -4.224114        -1.741173         1.650072
 H        -3.042551        -2.601716         0.599003
 H        -2.851043        -2.436287         3.370182
 H        -0.878185        -1.270928         3.900030
 H        -0.502037         0.776636         2.707266
 H         0.381234        -0.529896         1.803461
