19
Iteration:  3525charge 0 multiplicity 1
 O        -0.966964         1.064935        -0.165013
 C        -1.681280         0.466443         0.880531
 C        -3.058967         0.915304         1.288060
 C        -2.895050        -0.357997         0.525280
 C        -3.303636        -1.714947         1.290989
 C        -2.349636        -2.084443         2.511915
 O        -1.056432        -2.650607         2.318492
 C        -1.112607        -1.336382         2.894035
 C        -0.581878        -0.080534         1.973846
 H        -1.071662         2.017784        -0.110722
 H        -3.240108         0.769005         2.328246
 H        -3.351337         1.846725         0.814791
 H        -3.305706        -0.392467        -0.561674
 H        -4.366690        -1.669497         1.681289
 H        -3.247027        -2.360692         0.458953
 H        -2.968016        -2.512623         3.316252
 H        -0.779639        -1.210592         3.954481
 H        -0.331091         0.716183         2.759076
 H         0.239254        -0.437663         1.346504
