19
Iteration:  4248charge 0 multiplicity 1
 O        -0.989476         0.992634        -0.142716
 C        -1.712438         0.395395         1.007731
 C        -3.016436         0.966614         1.325678
 C        -2.928769        -0.409895         0.503747
 C        -3.250759        -1.677818         1.289885
 C        -2.401624        -2.066439         2.490013
 O        -1.026119        -2.537518         2.273300
 C        -1.101012        -1.215064         2.883489
 C        -0.614458        -0.184965         1.948386
 H        -1.185663         1.916639        -0.081937
 H        -3.388303         0.887470         2.403648
 H        -3.502244         1.783202         0.846048
 H        -3.110544        -0.442509        -0.611153
 H        -4.305028        -1.727256         1.543746
 H        -2.970284        -2.498458         0.515893
 H        -2.892231        -2.796933         3.236272
 H        -0.732306        -1.096739         3.889436
 H        -0.081362         0.599648         2.405271
 H         0.127848        -0.510896         1.199193
