19
Iteration:  4450charge 0 multiplicity 1
 O        -0.982358         1.139136        -0.054764
 C        -1.720187         0.397258         0.823761
 C        -2.971478         0.889926         1.428327
 C        -2.946379        -0.369059         0.568881
 C        -3.126165        -1.774986         1.177683
 C        -2.312367        -2.021780         2.481785
 O        -1.081032        -2.566607         2.451244
 C        -1.187643        -1.181202         2.831915
 C        -0.753627        -0.282390         1.737892
 H        -0.192933         1.593437         0.264232
 H        -3.052302         0.881386         2.523590
 H        -3.532747         1.692340         0.924511
 H        -3.589965        -0.072942        -0.307564
 H        -4.214480        -2.030732         1.294452
 H        -2.756741        -2.569587         0.510281
 H        -2.884791        -2.204273         3.379864
 H        -0.863979        -1.002162         3.916274
 H        -0.277061         0.611562         2.144090
 H        -0.007596        -0.860481         1.226796
