19
Iteration:   544
 O        -1.000413         1.023621        -0.179954
 C        -1.669658         0.335506         0.820011
 C        -3.074270         0.877488         1.102060
 C        -2.875984        -0.531184         0.452199
 C        -3.129773        -1.766902         1.349687
 C        -2.258955        -2.140992         2.485756
 O        -0.890119        -2.447797         2.348780
 C        -1.242215        -1.156165         2.965748
 C        -0.923193         0.110063         2.144136
 H        -0.250636         0.492612        -0.449273
 H        -3.253232         0.868031         2.187013
 H        -3.504241         1.700114         0.477394
 H        -3.170315        -0.617118        -0.562275
 H        -4.148290        -1.470239         1.779118
 H        -3.450608        -2.599152         0.644523
 H        -2.744993        -2.677585         3.312746
 H        -0.927094        -1.259057         4.078180
 H        -0.930954         0.967512         2.898419
 H         0.125266        -0.253548         1.914673
