19
Iteration:  1645
 O        -0.936147         0.926486        -0.194816
 C        -1.656585         0.420501         0.991683
 C        -2.954620         0.876825         1.386048
 C        -2.940773        -0.457196         0.667585
 C        -3.145930        -1.833724         1.127750
 C        -2.413327        -1.929140         2.497054
 O        -1.112141        -2.544647         2.293679
 C        -1.176256        -1.182766         2.893782
 C        -0.680016        -0.017223         1.930503
 H        -1.207297         1.849103        -0.305841
 H        -3.207238         0.995401         2.432371
 H        -3.414290         1.671325         0.779374
 H        -3.125320        -0.425390        -0.394682
 H        -4.233516        -2.046976         1.209376
 H        -2.660685        -2.507015         0.444889
 H        -3.034958        -2.347228         3.174667
 H        -1.084856        -1.098016         3.981383
 H        -0.424638         0.751306         2.641313
 H         0.180644        -0.392779         1.345216
