19
Iteration:  2078charge 0 multiplicity 1
 O        -0.907347         1.002719        -0.162307
 C        -1.659285         0.440780         0.899126
 C        -3.018806         1.021635         1.167228
 C        -2.831589        -0.447360         0.642954
 C        -3.364314        -1.602296         1.536932
 C        -2.316397        -2.063042         2.568625
 O        -1.089118        -2.630554         2.051581
 C        -1.063916        -1.401270         2.748759
 C        -0.700664        -0.094373         2.117814
 H        -1.619866         1.569065        -0.614879
 H        -3.364325         1.220051         2.107265
 H        -3.243794         1.898371         0.530946
 H        -2.917069        -0.555370        -0.459461
 H        -4.293506        -1.360499         1.992284
 H        -3.385174        -2.488794         0.841515
 H        -2.980615        -2.677022         3.253310
 H        -0.584943        -1.513854         3.713984
 H        -1.139426         0.594211         2.895166
 H         0.344583         0.193632         2.146110
