19
Iteration:  2766charge 0 multiplicity 1
 O        -1.006624         1.217576        -0.033587
 C        -1.693015         0.407746         0.901435
 C        -3.028939         0.970496         1.237924
 C        -2.859545        -0.427465         0.578077
 C        -3.222084        -1.646996         1.324792
 C        -2.366839        -2.068117         2.564112
 O        -1.082321        -2.671018         2.322633
 C        -1.149491        -1.260342         2.775804
 C        -0.654935        -0.169252         1.850005
 H        -0.297570         0.663294        -0.409759
 H        -3.453237         0.797041         2.172618
 H        -3.412668         1.860409         0.636264
 H        -3.202551        -0.430377        -0.419138
 H        -4.285332        -1.601074         1.770086
 H        -3.240498        -2.610479         0.714566
 H        -2.779115        -2.515691         3.423859
 H        -0.784419        -1.179670         3.808897
 H        -0.011320         0.533909         2.379942
 H        -0.012608        -0.833776         1.336942
