19
Iteration:  3669
 O        -1.054141         1.091697        -0.205410
 C        -1.704013         0.431494         0.915909
 C        -2.980801         0.987367         1.470872
 C        -2.973877        -0.368986         0.568345
 C        -3.102027        -1.785082         1.115771
 C        -2.394698        -2.006826         2.503086
 O        -1.106509        -2.654795         2.494400
 C        -1.166359        -1.311557         2.773737
 C        -0.603292        -0.135465         1.862365
 H        -0.421064         1.766721         0.166238
 H        -3.196649         0.997966         2.572690
 H        -3.457412         1.755661         0.895541
 H        -3.355062        -0.126753        -0.471414
 H        -4.060975        -2.414717         1.122164
 H        -2.478165        -2.388591         0.443345
 H        -3.035947        -2.303495         3.332482
 H        -0.858329        -1.002444         3.764693
 H        -0.256175         0.648640         2.572799
 H         0.185470        -0.566865         1.279523
