19
Iteration:  4172charge 0 multiplicity 1
 O        -1.101076         0.909974        -0.149089
 C        -1.577510         0.395332         1.004777
 C        -3.015687         0.936683         1.202681
 C        -2.858369        -0.395551         0.613708
 C        -3.230878        -1.734428         1.334807
 C        -2.362943        -1.967805         2.511973
 O        -1.139709        -2.583423         2.053378
 C        -1.036714        -1.300453         2.838466
 C        -0.702835         0.004630         2.151390
 H        -0.412847         1.629005        -0.149114
 H        -3.401486         1.049911         2.261206
 H        -3.429204         1.714965         0.555298
 H        -3.059888        -0.397004        -0.508598
 H        -4.248352        -1.671891         1.714836
 H        -2.977543        -2.691014         0.730099
 H        -2.899221        -2.624318         3.317821
 H        -0.535464        -1.326015         3.793791
 H        -0.745534         0.842134         2.849992
 H         0.377430         0.073139         1.884189
