19
Iteration:  3117charge 0 multiplicity 1
 O        -0.926579         0.904497        -0.083647
 C        -1.649509         0.485304         1.019006
 C        -3.082527         0.963727         1.174003
 C        -2.877624        -0.395947         0.626426
 C        -3.237247        -1.552917         1.483975
 C        -2.292157        -2.067258         2.518209
 O        -1.046877        -2.574292         1.953707
 C        -1.145750        -1.385386         2.788340
 C        -0.780599        -0.028441         2.149620
 H        -0.891681         0.191781        -0.739775
 H        -3.424825         1.271589         2.147249
 H        -3.164687         1.747089         0.438892
 H        -3.000585        -0.558786        -0.440741
 H        -4.179972        -1.178457         1.933321
 H        -3.582625        -2.383918         0.799843
 H        -2.707762        -2.730950         3.282929
 H        -0.478072        -1.412336         3.653298
 H        -1.001338         0.705856         2.925653
 H         0.198213        -0.072285         1.779388
