19
Iteration:   261charge 0 multiplicity 1
 O        -1.135369         1.256495        -0.127873
 C        -1.668286         0.335794         0.842836
 C        -3.062641         0.787601         1.142152
 C        -2.827112        -0.544020         0.471106
 C        -3.064605        -1.910500         1.116742
 C        -2.412481        -1.986992         2.514497
 O        -1.023253        -2.490034         2.720599
 C        -1.198665        -1.114197         2.924380
 C        -0.649583        -0.115151         1.865039
 H        -0.197860         1.431415        -0.078115
 H        -3.319060         0.794999         2.138153
 H        -3.492935         1.569472         0.481551
 H        -3.322919        -0.540865        -0.498654
 H        -4.124192        -1.916711         1.310505
 H        -3.011649        -2.831048         0.521400
 H        -3.014566        -2.459559         3.311103
 H        -1.068729        -0.705801         3.921159
 H        -0.097712         0.770731         2.326774
 H         0.186275        -0.706881         1.394912
