19
Iteration:  2043charge 0 multiplicity 1
 O        -0.921091         0.990158        -0.091273
 C        -1.631234         0.400841         0.986433
 C        -3.070437         0.944826         1.155973
 C        -2.876021        -0.480744         0.599040
 C        -3.338339        -1.565361         1.517405
 C        -2.350155        -2.072345         2.474698
 O        -1.073799        -2.623281         2.067361
 C        -1.086334        -1.265736         2.818081
 C        -0.682269        -0.103637         2.025605
 H        -0.879075         1.976937        -0.222090
 H        -3.351168         1.022634         2.182185
 H        -3.386861         1.760567         0.482987
 H        -2.894500        -0.430260        -0.532116
 H        -4.239427        -1.272078         2.043764
 H        -3.747725        -2.425461         0.941198
 H        -2.861796        -2.712220         3.304028
 H        -0.603376        -1.419149         3.790190
 H        -0.554699         0.677077         2.780402
 H         0.260592        -0.259237         1.499325
