19
Iteration:  3033charge 0 multiplicity 1
 O        -0.887003         0.869853        -0.151072
 C        -1.644600         0.341500         1.002040
 C        -2.994373         0.941710         1.290741
 C        -2.958455        -0.420432         0.645964
 C        -3.372207        -1.659945         1.456942
 C        -2.341984        -2.084758         2.452183
 O        -1.076835        -2.416743         1.903680
 C        -1.081450        -1.241122         2.793374
 C        -0.736905         0.033824         2.188735
 H        -0.001285         0.474552        -0.399586
 H        -3.410600         0.989853         2.343232
 H        -3.389111         1.565612         0.511491
 H        -3.250340        -0.426522        -0.374260
 H        -4.326724        -1.588689         1.946621
 H        -3.450105        -2.488439         0.707351
 H        -2.745154        -2.699778         3.377507
 H        -0.741022        -1.580504         3.759022
 H        -0.637405         0.783221         3.001196
 H         0.335056        -0.110090         1.932965
