19
Iteration:  2084
 O        -0.883775         0.968420        -0.149203
 C        -1.609053         0.464248         0.944498
 C        -3.003306         0.991582         1.167745
 C        -2.873524        -0.403312         0.683850
 C        -3.351457        -1.629328         1.475376
 C        -2.338806        -2.064659         2.535251
 O        -1.108335        -2.627210         2.037797
 C        -1.065947        -1.376957         2.743734
 C        -0.752257        -0.029607         2.092991
 H        -1.569449         1.444203        -0.627897
 H        -3.261094         1.187472         2.284871
 H        -3.342293         1.705954         0.390757
 H        -2.980906        -0.735932        -0.369684
 H        -4.314229        -1.482068         2.077144
 H        -3.566454        -2.524817         0.896190
 H        -2.611862        -2.645864         3.433198
 H        -0.480739        -1.414240         3.692424
 H        -1.018585         0.604905         2.962916
 H         0.361576         0.065034         2.129820
