19
Iteration:  3090charge 0 multiplicity 1
 O        -0.983605         1.092948        -0.106148
 C        -1.676297         0.415252         1.008757
 C        -3.030238         1.066253         1.004838
 C        -2.907438        -0.472501         0.580459
 C        -3.377605        -1.569636         1.578742
 C        -2.249254        -2.128482         2.476952
 O        -1.066655        -2.640098         1.985166
 C        -1.083846        -1.439133         2.854638
 C        -0.661657        -0.010157         2.242414
 H        -0.735801         0.514663        -0.859858
 H        -3.356466         1.196819         2.088168
 H        -3.206229         1.822811         0.208254
 H        -2.809384        -0.889439        -0.444571
 H        -4.272338        -1.152425         2.065885
 H        -3.749670        -2.343660         0.943121
 H        -2.732285        -2.736929         3.310480
 H        -0.584504        -1.588396         3.806065
 H        -0.856802         0.760095         3.000136
 H         0.346985        -0.074141         1.672498
