19
Iteration:   994charge 0 multiplicity 1
 O        -1.122908         1.136059        -0.225139
 C        -1.686308         0.400363         0.791174
 C        -2.959589         0.829363         1.386461
 C        -2.853866        -0.450412         0.529724
 C        -2.988745        -1.813816         1.121148
 C        -2.375284        -2.047404         2.426658
 O        -1.065808        -2.473634         2.612470
 C        -1.277470        -1.084320         2.940017
 C        -0.703524        -0.232504         1.872492
 H        -0.453348         1.746507         0.110171
 H        -3.088202         0.613144         2.445409
 H        -3.475032         1.685575         1.121627
 H        -3.371455        -0.366292        -0.409703
 H        -4.019124        -2.131434         1.209974
 H        -2.581520        -2.635096         0.494237
 H        -3.111076        -2.524519         3.071838
 H        -1.130632        -0.885442         4.073883
 H        -0.259806         0.601829         2.357285
 H         0.044742        -0.819437         1.339339
