19
Iteration:  3569
 O        -1.084403         1.197721        -0.127552
 C        -1.629533         0.398763         0.964634
 C        -3.047088         0.896808         1.296652
 C        -2.879104        -0.428347         0.450446
 C        -3.212716        -1.749835         1.285782
 C        -2.391839        -2.001142         2.601238
 O        -1.175083        -2.599822         2.318063
 C        -1.098835        -1.260107         2.846838
 C        -0.531841        -0.176783         1.909456
 H        -0.363130         1.717474         0.230530
 H        -3.359606         0.649327         2.258431
 H        -3.575719         1.705566         0.757166
 H        -3.106561        -0.398394        -0.735750
 H        -4.360799        -1.769278         1.208485
 H        -2.944463        -2.685454         0.813434
 H        -2.855412        -2.511801         3.450444
 H        -0.542384        -1.241393         3.820044
 H         0.019418         0.706082         2.438249
 H         0.125107        -0.793522         1.272845
