19
Iteration:  3367
 O        -0.981305         0.763325        -0.112021
 C        -1.644444         0.285037         1.039276
 C        -3.039660         0.968903         1.139741
 C        -2.878992        -0.471291         0.591041
 C        -3.350241        -1.591869         1.489935
 C        -2.307046        -2.031474         2.388745
 O        -1.040170        -2.448811         1.913990
 C        -1.045655        -1.298996         2.865088
 C        -0.779248         0.070547         2.250955
 H        -0.516390         1.556384         0.184204
 H        -3.765680         0.991436         1.986156
 H        -3.131209         1.869707         0.468412
 H        -3.019287        -0.447619        -0.535263
 H        -4.276033        -1.253052         1.991806
 H        -3.445009        -2.359671         0.772903
 H        -2.589755        -2.663276         3.234383
 H        -0.511869        -1.695362         3.770882
 H        -0.754662         0.807106         3.054914
 H         0.298944         0.074292         1.870525
