19
Iteration:  4045
 O        -0.875978         0.846753        -0.106523
 C        -1.629724         0.336002         0.958143
 C        -3.084138         0.972286         1.191975
 C        -2.882906        -0.477265         0.653434
 C        -3.353168        -1.664779         1.447518
 C        -2.363081        -2.032636         2.503230
 O        -1.019710        -2.463599         1.946743
 C        -1.099811        -1.333387         2.792782
 C        -0.764896         0.067270         2.166890
 H        -0.573481         1.675027         0.250478
 H        -3.548206         1.101332         2.150290
 H        -3.355317         1.691941         0.433520
 H        -3.134269        -0.525083        -0.473742
 H        -4.255293        -1.461986         2.062459
 H        -3.541833        -2.567737         0.930411
 H        -2.703133        -2.778349         3.172676
 H        -0.482077        -1.398033         3.707530
 H        -0.721688         0.880270         2.898772
 H         0.185822        -0.071891         1.664798
