19
Iteration:  4928charge 0 multiplicity 1
 O        -0.924431         0.899103        -0.101456
 C        -1.777749         0.454884         0.968480
 C        -3.088004         1.043772         1.258051
 C        -2.882293        -0.402781         0.621516
 C        -3.149252        -1.706679         1.377907
 C        -2.328008        -2.068194         2.612901
 O        -1.044721        -2.605150         2.064128
 C        -1.115030        -1.324738         2.816006
 C        -0.801497        -0.021775         1.958807
 H        -0.542424         1.810723         0.075947
 H        -3.371796         1.059591         2.253930
 H        -3.308278         1.952052         0.676504
 H        -3.157263        -0.540561        -0.486815
 H        -4.066129        -1.805402         1.817463
 H        -2.975032        -2.339741         0.505689
 H        -2.829007        -2.683181         3.443831
 H        -0.671299        -1.544366         3.755427
 H        -0.575622         0.833474         2.629505
 H         0.105825        -0.056188         1.377217
