19
Iteration:  1945charge 0 multiplicity 1
 O        -0.921082         1.016179        -0.166878
 C        -1.633557         0.414124         0.925974
 C        -3.022401         0.999704         1.336136
 C        -2.924461        -0.339784         0.660780
 C        -3.177455        -1.686481         1.272258
 C        -2.370592        -2.083982         2.562224
 O        -1.039498        -2.604879         2.225712
 C        -1.188784        -1.220135         2.834154
 C        -0.749660        -0.154266         1.977758
 H        -1.425601         0.755230        -0.994958
 H        -3.188551         1.147124         2.409214
 H        -3.276725         1.858891         0.823502
 H        -3.323209        -0.169142        -0.314808
 H        -4.251228        -1.762489         1.433858
 H        -3.129202        -2.505975         0.493176
 H        -2.899498        -2.838069         3.234390
 H        -0.838792        -1.255405         3.855106
 H        -0.272040         0.693222         2.593729
 H         0.184954        -0.559776         1.517987
