19
Iteration:  2632charge 0 multiplicity 1
 O        -1.029870         1.125994        -0.178298
 C        -1.643304         0.457914         0.898702
 C        -2.950171         1.127485         1.391325
 C        -2.974202        -0.352282         0.578547
 C        -3.151864        -1.754835         1.234199
 C        -2.388046        -2.089079         2.521895
 O        -1.031736        -2.674207         2.395959
 C        -1.178197        -1.366130         2.824304
 C        -0.690469        -0.139783         1.915153
 H        -1.088308         0.422315        -0.837417
 H        -3.403710         1.037637         2.461839
 H        -3.271259         2.093001         0.934547
 H        -3.344250        -0.105367        -0.474678
 H        -4.248366        -2.082336         1.292801
 H        -2.560315        -2.368821         0.463506
 H        -2.980264        -2.516342         3.315615
 H        -0.934968        -1.254694         3.952274
 H        -0.206158         0.661967         2.433371
 H         0.141038        -0.619590         1.432889
