19
Iteration:  2483charge 0 multiplicity 1
 O        -0.945186         0.823922        -0.185457
 C        -1.595269         0.348366         0.941530
 C        -3.016348         0.974296         1.372623
 C        -2.919261        -0.339813         0.676763
 C        -3.283820        -1.692532         1.272839
 C        -2.390719        -2.095278         2.491363
 O        -0.984649        -2.471221         2.043106
 C        -1.213611        -1.241118         2.878761
 C        -0.705407         0.029321         2.147591
 H        -1.315646         0.545294        -1.061778
 H        -3.236382         1.054874         2.468325
 H        -3.255353         2.018237         1.105941
 H        -3.199605        -0.446451        -0.431311
 H        -4.331371        -1.608027         1.601423
 H        -3.163190        -2.490554         0.493839
 H        -2.772484        -2.868733         3.339460
 H        -0.701350        -1.330762         3.840774
 H        -0.561593         1.021368         2.703263
 H         0.314516        -0.245656         1.656283
