19
Iteration:  4378
 O        -1.093120         1.220568        -0.258868
 C        -1.654244         0.427696         0.832705
 C        -2.934539         0.875564         1.490044
 C        -2.928305        -0.313901         0.546675
 C        -3.061202        -1.788958         1.146819
 C        -2.439099        -1.981281         2.592118
 O        -1.187357        -2.707103         2.511465
 C        -1.150472        -1.283486         2.828727
 C        -0.587114        -0.232638         1.823296
 H        -1.272429         2.150602         0.039520
 H        -2.994305         0.909435         2.550905
 H        -3.451187         1.741781         0.954335
 H        -3.233899        -0.251054        -0.518881
 H        -4.017368        -2.277891         1.060530
 H        -2.440186        -2.415872         0.479843
 H        -3.135171        -2.155635         3.455968
 H        -0.578235        -1.177728         3.677767
 H        -0.303236         0.509459         2.609982
 H         0.366927        -0.595973         1.346410
