19
Iteration:  2356charge 0 multiplicity 1
 O        -0.851526         0.752784        -0.108201
 C        -1.652364         0.337413         0.998188
 C        -2.991119         0.925110         1.197517
 C        -2.945320        -0.428214         0.639969
 C        -3.391403        -1.584037         1.520853
 C        -2.326554        -2.091652         2.484702
 O        -1.002674        -2.349568         1.854135
 C        -1.110693        -1.309001         2.820449
 C        -0.778476        -0.035478         2.177733
 H        -0.965219         1.695281        -0.164221
 H        -3.373929         1.100952         2.281027
 H        -3.068234         1.795772         0.524526
 H        -3.067841        -0.473236        -0.464629
 H        -4.255801        -1.327695         2.160136
 H        -3.803703        -2.396482         0.894883
 H        -2.660600        -2.833879         3.195437
 H        -0.629755        -1.470343         3.835578
 H        -0.971418         0.885026         2.801167
 H         0.225404        -0.112659         1.735208
