19
Iteration:   854
 O        -0.923767         0.751320        -0.171710
 C        -1.758586         0.391733         0.931899
 C        -3.092013         0.964829         1.041733
 C        -2.954596        -0.375605         0.521401
 C        -3.174837        -1.603434         1.443254
 C        -2.211345        -2.142366         2.471253
 O        -0.879540        -2.438337         2.128081
 C        -1.145062        -1.279043         2.999458
 C        -0.916852        -0.015010         2.209893
 H        -0.567194         1.668336        -0.102277
 H        -3.569542         1.165044         1.970079
 H        -3.417166         1.599525         0.255147
 H        -3.325502        -0.479899        -0.495421
 H        -4.222084        -1.554391         1.720043
 H        -3.198083        -2.433171         0.686253
 H        -2.736182        -2.708389         3.285846
 H        -0.848086        -1.251526         4.049178
 H        -0.919668         0.884862         2.954137
 H         0.108112        -0.108245         1.763497
