19
Iteration:  3851charge 0 multiplicity 1
 O        -1.009444         1.037832        -0.155875
 C        -1.601405         0.434485         0.948154
 C        -3.038525         0.948660         1.328915
 C        -2.805179        -0.477954         0.556810
 C        -3.253359        -1.739580         1.309740
 C        -2.443986        -2.004797         2.551604
 O        -1.023722        -2.610219         2.224050
 C        -1.136156        -1.268631         2.709995
 C        -0.747199        -0.072547         2.007589
 H        -0.225723         1.514637         0.092054
 H        -3.426684         0.883933         2.290689
 H        -3.235374         1.909261         0.898135
 H        -3.346373        -0.469522        -0.458654
 H        -4.308669        -1.648909         1.494340
 H        -3.270507        -2.717689         0.749430
 H        -2.893531        -2.354071         3.475326
 H        -0.607322        -1.229096         3.628528
 H        -0.789931         0.663528         2.905445
 H         0.346665        -0.142059         1.692184
