19
Iteration:  4167charge 0 multiplicity 1
 O        -1.103542         0.876783        -0.126963
 C        -1.607961         0.417387         1.012661
 C        -3.028689         0.931301         1.215044
 C        -2.854055        -0.393684         0.591521
 C        -3.240363        -1.730085         1.322755
 C        -2.357314        -2.013619         2.540143
 O        -1.114163        -2.564965         2.045190
 C        -1.044614        -1.285959         2.831995
 C        -0.674408         0.016845         2.149163
 H        -0.384238         1.507619         0.003625
 H        -3.404071         1.014040         2.203189
 H        -3.280976         1.760660         0.521030
 H        -2.994570        -0.449462        -0.446886
 H        -4.314093        -1.619965         1.609850
 H        -3.165349        -2.542117         0.603417
 H        -2.928298        -2.390962         3.373454
 H        -0.474964        -1.456705         3.782519
 H        -0.832963         0.937773         2.767077
 H         0.348770         0.026864         1.745725
