19
Iteration:  1208charge 0 multiplicity 1
 O        -0.998052         0.928478        -0.105040
 C        -1.720901         0.309257         0.926277
 C        -3.033846         0.852850         1.283557
 C        -2.897036        -0.522651         0.543455
 C        -3.159667        -1.823443         1.213430
 C        -2.371861        -1.976402         2.448079
 O        -1.033184        -2.445450         2.303765
 C        -1.165853        -1.085776         2.942018
 C        -0.681759        -0.011352         1.947998
 H        -0.616326         1.739082         0.314559
 H        -3.380512         0.733305         2.300872
 H        -3.524869         1.754101         0.792449
 H        -2.817789        -0.413353        -0.542540
 H        -4.252037        -1.900699         1.262863
 H        -3.015632        -2.636209         0.519230
 H        -2.852990        -2.284816         3.363138
 H        -1.020039        -0.992626         3.973462
 H        -0.446798         0.865507         2.495757
 H         0.199850        -0.414549         1.502280
