19
Iteration:  3612charge 0 multiplicity 1
 O        -1.047420         1.056601        -0.200621
 C        -1.620304         0.378652         0.865334
 C        -2.932660         0.890945         1.520345
 C        -2.941200        -0.351856         0.559284
 C        -3.168480        -1.794601         1.109150
 C        -2.424436        -2.061120         2.487680
 O        -1.061075        -2.581363         2.428668
 C        -1.216556        -1.158108         2.840114
 C        -0.626161        -0.148112         1.861079
 H        -0.701061         1.837036         0.229606
 H        -3.072736         0.667431         2.542229
 H        -3.471835         1.796770         1.216822
 H        -3.074871         0.007174        -0.533304
 H        -4.229325        -2.004168         1.531977
 H        -3.099214        -2.545069         0.341503
 H        -3.065649        -2.435964         3.293958
 H        -1.020838        -1.126832         3.945420
 H        -0.220257         0.725093         2.356995
 H         0.249951        -0.506765         1.328169
