19
Iteration:   121charge 0 multiplicity 1
 O        -0.940681         1.030904        -0.066927
 C        -1.712775         0.289833         0.946755
 C        -3.158245         0.797530         0.884921
 C        -2.796325        -0.606703         0.460491
 C        -3.241057        -1.756671         1.382526
 C        -2.274423        -2.136141         2.490076
 O        -0.879841        -2.332388         2.277595
 C        -1.222195        -1.131856         2.986032
 C        -0.856261         0.108052         2.209064
 H        -0.393602         0.338002        -0.547044
 H        -3.660645         1.081061         1.819168
 H        -3.358295         1.494165         0.115335
 H        -2.739376        -0.835566        -0.577338
 H        -4.201051        -1.427707         1.865295
 H        -3.615922        -2.599028         0.787696
 H        -2.819363        -2.840304         3.117538
 H        -0.844679        -1.144287         4.022753
 H        -0.838533         1.098031         2.602614
 H         0.144538        -0.008842         1.930505
