19
Iteration:  1925
 O        -0.887337         1.031139        -0.061348
 C        -1.658115         0.337905         0.907031
 C        -2.981225         1.007203         1.345114
 C        -2.977479        -0.426148         0.539851
 C        -3.224013        -1.701152         1.341052
 C        -2.401303        -2.006647         2.511618
 O        -1.065576        -2.511887         2.244988
 C        -1.144747        -1.266940         2.867443
 C        -0.659184        -0.187328         1.880030
 H        -1.408257         1.666977        -0.610473
 H        -3.336731         0.879416         2.359788
 H        -3.560474         1.784506         0.957173
 H        -3.205863        -0.488356        -0.557643
 H        -4.286772        -1.861328         1.595248
 H        -3.049728        -2.613056         0.618717
 H        -2.924632        -2.481094         3.405554
 H        -0.910642        -1.401251         3.931078
 H        -0.173316         0.765142         2.353810
 H         0.066460        -0.547910         1.127689
