19
Iteration:  4857
 O        -1.020169         0.930192        -0.214215
 C        -1.649544         0.387675         0.996183
 C        -3.068885         0.904961         1.218738
 C        -2.801195        -0.419951         0.656611
 C        -3.313809        -1.658658         1.414534
 C        -2.359846        -2.098764         2.432961
 O        -1.014546        -2.443206         2.024403
 C        -1.167045        -1.323183         2.884492
 C        -0.694835        -0.032251         2.140877
 H        -0.712926         1.871976        -0.039650
 H        -3.335308         1.001623         2.358306
 H        -3.368903         1.695490         0.549239
 H        -2.944574        -0.608543        -0.402602
 H        -4.126081        -1.284922         2.008282
 H        -3.379085        -2.626083         0.946285
 H        -2.692662        -2.878288         3.087050
 H        -0.807158        -1.361342         3.969753
 H        -0.257420         0.729642         2.856699
 H         0.240977        -0.359323         1.578000
