19
Iteration:  3029
 O        -0.936195         0.866307        -0.144946
 C        -1.608660         0.289908         0.971562
 C        -3.003704         0.970398         1.317683
 C        -2.933545        -0.454596         0.685667
 C        -3.343748        -1.624193         1.422122
 C        -2.359598        -2.102009         2.443286
 O        -1.064666        -2.401468         1.913064
 C        -1.091934        -1.242157         2.787431
 C        -0.726740         0.022259         2.198709
 H        -0.184409         0.297971        -0.312099
 H        -3.347383         1.271805         2.276285
 H        -3.367843         1.661440         0.496973
 H        -3.163431        -0.430214        -0.430612
 H        -4.317201        -1.710773         1.960883
 H        -3.429029        -2.385157         0.572818
 H        -2.822374        -2.626817         3.323405
 H        -0.730809        -1.509584         3.796930
 H        -0.727882         0.762393         3.040536
 H         0.322009         0.011700         1.876133
