19
Iteration:  1220charge 0 multiplicity 1
 O        -1.035791         0.948559        -0.141664
 C        -1.607400         0.354100         0.982096
 C        -3.168649         0.788451         1.215481
 C        -2.769488        -0.486610         0.582550
 C        -3.208381        -1.818634         1.222837
 C        -2.386469        -1.944413         2.529764
 O        -1.071838        -2.425076         2.293838
 C        -1.182007        -1.152671         2.773843
 C        -0.635539        -0.016860         2.057797
 H        -0.499347         1.716001         0.169468
 H        -3.402707         0.758182         2.247332
 H        -3.464945         1.664217         0.576921
 H        -3.036114        -0.583606        -0.490933
 H        -4.258803        -1.874329         1.542050
 H        -2.826845        -2.614790         0.636920
 H        -2.920283        -2.467690         3.327200
 H        -0.858919        -1.148440         3.747260
 H        -0.405969         0.819246         2.700747
 H         0.289645        -0.233359         1.554360
