19
Iteration:  4042
 O        -0.880934         0.869465        -0.113398
 C        -1.625561         0.333121         0.960496
 C        -3.054492         0.955915         1.186985
 C        -2.904134        -0.476512         0.679596
 C        -3.344682        -1.670172         1.445553
 C        -2.365608        -2.066488         2.480789
 O        -1.015265        -2.465917         1.933354
 C        -1.095211        -1.304844         2.840555
 C        -0.767559         0.055761         2.135354
 H        -0.465220         1.694929         0.241776
 H        -3.577625         1.132087         2.143454
 H        -3.324704         1.753394         0.396757
 H        -3.160016        -0.632328        -0.416072
 H        -4.272658        -1.435964         2.076675
 H        -3.719606        -2.551503         0.884745
 H        -2.806172        -2.764913         3.227686
 H        -0.526008        -1.425009         3.819314
 H        -0.806729         0.968469         2.857899
 H         0.293378        -0.032301         1.703630
