19
Iteration:  2592
 O        -1.019362         1.221004        -0.101811
 C        -1.590273         0.363169         0.916991
 C        -3.000112         0.806499         1.399132
 C        -2.910924        -0.446068         0.477806
 C        -3.314247        -1.774375         1.302135
 C        -2.471822        -1.942908         2.570015
 O        -1.122853        -2.564203         2.251508
 C        -1.099084        -1.263297         2.757605
 C        -0.549006        -0.122344         1.978458
 H        -0.386311         0.766860        -0.720349
 H        -3.110222         0.562319         2.475790
 H        -3.179382         1.657729         0.836490
 H        -3.083470        -0.324233        -0.605911
 H        -4.370300        -1.660923         1.575753
 H        -3.411425        -2.723050         0.817215
 H        -2.851975        -2.332942         3.579928
 H        -0.827477        -1.143965         3.820080
 H        -0.162790         0.793853         2.558214
 H         0.280355        -0.452799         1.263312
