19
Iteration:  4020
 O        -0.983358         0.965494        -0.208379
 C        -1.602378         0.340303         0.900392
 C        -2.951781         0.983767         1.164430
 C        -2.894509        -0.458844         0.573117
 C        -3.364679        -1.606223         1.548166
 C        -2.306971        -2.202402         2.462610
 O        -0.931435        -2.439562         2.003939
 C        -1.247625        -1.318067         2.839215
 C        -0.818969        -0.027635         2.214692
 H        -0.211252         1.373203         0.210958
 H        -3.184974         1.135723         2.247527
 H        -3.289572         1.856196         0.494696
 H        -3.170215        -0.461810        -0.516970
 H        -4.229531        -1.405698         2.259437
 H        -3.745786        -2.519161         1.035508
 H        -2.553565        -3.039573         3.125280
 H        -0.776853        -1.316220         3.872190
 H        -0.801222         0.766314         3.057206
 H         0.246249        -0.243891         1.855505
