19
Iteration:  1565
 O        -0.987782         1.149213        -0.088972
 C        -1.685000         0.400113         0.944094
 C        -3.051467         0.872755         1.103092
 C        -2.789737        -0.533537         0.525329
 C        -3.221004        -1.697372         1.360678
 C        -2.411801        -2.008328         2.544274
 O        -1.075362        -2.554550         2.194723
 C        -1.113745        -1.257001         2.876833
 C        -0.734145        -0.018133         2.099870
 H        -0.602115         0.507226        -0.703812
 H        -3.419786         0.884378         2.162745
 H        -3.266555         1.687009         0.477620
 H        -3.075159        -0.673974        -0.541116
 H        -4.311924        -1.738977         1.581961
 H        -3.291200        -2.675253         0.912432
 H        -2.769929        -2.469420         3.438485
 H        -0.557895        -1.312611         3.871770
 H        -0.387376         0.641516         2.886104
 H         0.175003        -0.363007         1.591956
