19
Iteration:  3876charge 0 multiplicity 1
 O        -0.928685         1.045438        -0.105600
 C        -1.644601         0.420496         0.934270
 C        -3.065453         0.969755         1.114395
 C        -2.925753        -0.443929         0.676190
 C        -3.204070        -1.693402         1.382278
 C        -2.352762        -2.049227         2.531111
 O        -1.145071        -2.641442         2.078888
 C        -1.032785        -1.281951         2.937745
 C        -0.733765        -0.050341         2.014336
 H        -0.475086         1.797616         0.278600
 H        -3.602645         0.881008         2.088165
 H        -3.654070         1.731397         0.529640
 H        -3.108721        -0.597433        -0.351225
 H        -4.296368        -1.807131         1.617620
 H        -3.114312        -2.501724         0.755856
 H        -2.903521        -2.498791         3.407407
 H        -0.431470        -1.457564         3.859191
 H        -0.475142         0.860240         2.616430
 H         0.154335        -0.239569         1.356655
