19
Iteration:  3674
 O        -1.048206         1.109620        -0.180013
 C        -1.685946         0.393304         0.912521
 C        -2.976135         0.924478         1.438940
 C        -2.989440        -0.333169         0.582484
 C        -3.087280        -1.786733         1.097602
 C        -2.415936        -1.953337         2.521161
 O        -1.082315        -2.686221         2.477545
 C        -1.174389        -1.286581         2.782002
 C        -0.619330        -0.132254         1.834754
 H        -0.382979         1.678643         0.205936
 H        -3.125933         0.924638         2.512456
 H        -3.630366         1.643837         0.880653
 H        -3.448813        -0.080057        -0.342082
 H        -4.096057        -2.146764         1.246563
 H        -2.498985        -2.448756         0.410299
 H        -2.980400        -2.264888         3.418392
 H        -1.018237        -1.015072         3.856538
 H        -0.235026         0.667779         2.543518
 H         0.282952        -0.554833         1.294221
