19
Iteration:  3054
 O        -0.858018         0.981480        -0.084751
 C        -1.682903         0.409702         0.891534
 C        -3.048859         0.951555         1.216951
 C        -2.884815        -0.528359         0.592824
 C        -3.387697        -1.590298         1.543360
 C        -2.386677        -2.101293         2.542388
 O        -1.043014        -2.459695         1.902540
 C        -1.058672        -1.320962         2.808496
 C        -0.800468        -0.023959         2.071522
 H         0.037215         0.565364         0.086418
 H        -3.064750         0.970596         2.322632
 H        -3.439637         1.902104         0.837024
 H        -2.910066        -0.717558        -0.454855
 H        -4.225618        -1.336435         2.143986
 H        -3.742235        -2.478242         0.917574
 H        -2.851303        -2.852918         3.354889
 H        -0.572803        -1.526545         3.777444
 H        -0.706658         0.754813         2.886322
 H         0.293556        -0.088927         1.840632
