19
Iteration:  4196charge 0 multiplicity 1
 O        -0.971182         1.020157        -0.271145
 C        -1.619416         0.413788         0.879584
 C        -3.009088         0.919316         1.298813
 C        -2.856758        -0.379363         0.602766
 C        -3.248698        -1.717051         1.357499
 C        -2.424301        -2.137507         2.577856
 O        -1.010502        -2.582370         2.136432
 C        -1.131555        -1.330408         2.860484
 C        -0.770708        -0.049507         2.108970
 H        -0.858331         1.962662        -0.137988
 H        -3.199193         0.972797         2.395858
 H        -3.386810         1.785806         0.826362
 H        -3.215933        -0.466180        -0.438726
 H        -4.281201        -1.453400         1.699672
 H        -3.205739        -2.505818         0.595090
 H        -2.937756        -2.373224         3.516263
 H        -0.599705        -1.342357         3.828205
 H        -0.755995         0.913849         2.652579
 H         0.279655        -0.049632         1.795632
