19
Iteration:  2223charge 0 multiplicity 1
 O        -0.953219         0.910849        -0.086769
 C        -1.631033         0.406055         0.987147
 C        -3.004889         0.933847         1.130439
 C        -2.819916        -0.511588         0.654949
 C        -3.510144        -1.551948         1.615246
 C        -2.338350        -2.057439         2.529282
 O        -1.032828        -2.459754         1.796462
 C        -1.080341        -1.367768         2.773838
 C        -0.695635        -0.067544         2.169136
 H        -0.023125         0.886986        -0.022203
 H        -3.431391         1.283428         2.112634
 H        -3.386591         1.706700         0.398641
 H        -2.985253        -0.738122        -0.414029
 H        -4.273834        -1.001247         2.121936
 H        -4.011779        -2.345854         1.006643
 H        -2.676226        -2.781963         3.277510
 H        -0.631749        -1.564678         3.780855
 H        -0.788840         0.871412         2.817897
 H         0.352806         0.149835         2.048686
