19
Iteration:  1454charge 0 multiplicity 1
 O        -0.865542         0.785881        -0.128189
 C        -1.637830         0.335146         0.976220
 C        -3.095143         0.902863         1.079035
 C        -2.879938        -0.438470         0.626763
 C        -3.309289        -1.699480         1.389844
 C        -2.309776        -2.073378         2.517218
 O        -0.979525        -2.463642         2.020786
 C        -1.116039        -1.261806         2.776568
 C        -0.888123         0.135504         2.272822
 H        -0.473301         1.620730         0.206505
 H        -3.470523         1.281599         1.998128
 H        -3.426340         1.600607         0.266882
 H        -2.965169        -0.503273        -0.468522
 H        -4.318472        -1.500657         1.917041
 H        -3.296559        -2.596675         0.745420
 H        -2.773739        -2.629147         3.373088
 H        -0.577154        -1.268601         3.764514
 H        -1.108408         0.890220         3.066457
 H         0.172752         0.225700         1.995975
