19
Iteration:  4449
 O        -0.983038         1.137943        -0.051396
 C        -1.711693         0.396213         0.826349
 C        -2.977530         0.884916         1.430630
 C        -2.954556        -0.375924         0.563339
 C        -3.125497        -1.770547         1.182869
 C        -2.309824        -2.021508         2.468361
 O        -1.080955        -2.566193         2.451806
 C        -1.192041        -1.170378         2.830174
 C        -0.753664        -0.286598         1.743482
 H        -0.173956         1.613977         0.241696
 H        -3.024323         0.895714         2.549895
 H        -3.522445         1.685163         0.962240
 H        -3.558178        -0.069481        -0.338351
 H        -4.190674        -2.027148         1.301078
 H        -2.774125        -2.581661         0.513996
 H        -2.906244        -2.179691         3.392204
 H        -0.841925        -1.012402         3.930859
 H        -0.273395         0.616406         2.107482
 H        -0.014816        -0.870991         1.213079
