19
Iteration:  3453
 O        -0.960273         0.832885        -0.169690
 C        -1.721101         0.396700         0.972518
 C        -3.057928         0.956957         1.284141
 C        -2.914154        -0.348720         0.615023
 C        -3.267796        -1.568495         1.288528
 C        -2.315988        -2.033418         2.495510
 O        -0.978126        -2.563754         2.106792
 C        -1.116143        -1.343921         2.864251
 C        -0.699277        -0.062077         2.110409
 H        -0.997108         1.777509        -0.315898
 H        -3.292326         0.987008         2.343116
 H        -3.323384         1.862385         0.644956
 H        -2.975521        -0.320619        -0.530111
 H        -4.318435        -1.494302         1.775687
 H        -3.258293        -2.574685         0.655166
 H        -2.932813        -2.620424         3.243170
 H        -0.861338        -1.410356         3.927595
 H        -0.817988         0.720389         2.848656
 H         0.308796        -0.115052         1.663082
