19
Iteration:  3814
 O        -1.057626         0.959010        -0.253419
 C        -1.640095         0.403309         0.920020
 C        -2.985224         0.923331         1.430732
 C        -2.897391        -0.338557         0.595940
 C        -3.212516        -1.748831         1.195860
 C        -2.394799        -2.043371         2.433948
 O        -0.968904        -2.463388         2.261597
 C        -1.288321        -1.236504         2.923432
 C        -0.586543        -0.204391         2.051000
 H        -0.767766         1.869662        -0.120916
 H        -3.452746         0.608071         2.430251
 H        -3.289884         1.834320         0.834175
 H        -3.273002        -0.216012        -0.383100
 H        -4.269300        -1.681266         1.554574
 H        -3.102228        -2.501290         0.345622
 H        -2.942427        -2.617587         3.188887
 H        -0.985481        -1.234789         4.014231
 H        -0.320471         0.716139         2.546567
 H         0.291243        -0.676404         1.663635
