19
Iteration:  1692charge 0 multiplicity 1
 O        -1.004583         1.180365        -0.120106
 C        -1.630291         0.384623         0.841419
 C        -2.947962         0.946250         1.351927
 C        -2.821125        -0.376946         0.513397
 C        -3.197311        -1.783640         1.188919
 C        -2.372844        -2.050490         2.511365
 O        -1.048569        -2.635382         2.473743
 C        -1.258202        -1.172126         2.875287
 C        -0.682072        -0.179413         1.890800
 H        -1.432302         1.093900        -0.972347
 H        -3.110683         0.805909         2.481018
 H        -3.596071         1.689404         0.915711
 H        -3.291199        -0.302905        -0.485298
 H        -4.255878        -1.905138         1.463503
 H        -2.890230        -2.632560         0.473229
 H        -3.058786        -2.355018         3.332966
 H        -0.943287        -1.063642         3.914023
 H        -0.331861         0.704970         2.484342
 H         0.087789        -0.875747         1.485305
