19
Iteration:  1376
 O        -0.867452         0.875384        -0.085240
 C        -1.714581         0.423616         0.945532
 C        -3.105758         0.989759         0.963026
 C        -2.894608        -0.470749         0.618079
 C        -3.266238        -1.614196         1.452369
 C        -2.286412        -2.211061         2.547891
 O        -0.881108        -2.422850         2.022065
 C        -1.126371        -1.312229         2.886952
 C        -0.944159         0.072615         2.177685
 H        -0.012786         0.415059         0.134215
 H        -3.654158         1.220149         1.898963
 H        -3.450250         1.762183         0.200528
 H        -3.155510        -0.715724        -0.394603
 H        -4.277014        -1.354842         2.048293
 H        -3.659188        -2.496427         0.914920
 H        -2.648069        -3.013059         3.299284
 H        -0.748564        -1.351947         3.916678
 H        -1.036544         0.919628         2.893851
 H         0.088568        -0.063130         1.810605
