19
Iteration:  2252charge 0 multiplicity 1
 O        -0.976424         0.896512        -0.168329
 C        -1.655357         0.416703         0.994808
 C        -2.981431         0.979911         1.162790
 C        -2.826288        -0.449657         0.645518
 C        -3.304226        -1.535185         1.594462
 C        -2.319067        -2.181727         2.543827
 O        -1.093635        -2.475638         1.775403
 C        -1.129153        -1.341645         2.870730
 C        -0.809164        -0.001252         2.236899
 H        -0.022216         0.684402        -0.240255
 H        -3.274959         1.255828         2.183766
 H        -3.075727         1.645131         0.364507
 H        -3.032851        -0.603910        -0.363097
 H        -4.178202        -0.998828         2.087103
 H        -3.786324        -2.368350         1.002421
 H        -2.850285        -3.042097         3.154487
 H        -0.533385        -1.643758         3.716416
 H        -0.655716         0.930051         2.753073
 H         0.224426        -0.145971         1.846942
