19
Iteration:   373charge 0 multiplicity 1
 O        -0.992851         1.046541        -0.257937
 C        -1.701243         0.399316         0.869849
 C        -3.118610         0.734641         1.331049
 C        -2.881535        -0.453603         0.497143
 C        -2.942566        -1.871449         1.081654
 C        -2.368747        -2.020179         2.517980
 O        -1.089580        -2.461225         2.657129
 C        -1.273386        -1.038228         2.882193
 C        -0.701225        -0.056190         1.898038
 H        -0.344039         1.703045         0.081687
 H        -3.446664         0.501127         2.447234
 H        -3.737393         1.577877         1.078730
 H        -3.064526        -0.412841        -0.549108
 H        -3.927408        -2.375415         1.066319
 H        -2.419343        -2.581161         0.434385
 H        -3.168446        -2.264176         3.353216
 H        -1.213181        -0.927036         3.991155
 H        -0.090000         0.875267         2.320825
 H        -0.023194        -0.696537         1.279406
