19
Iteration:   712
 O        -0.844172         0.847576        -0.117220
 C        -1.616167         0.337455         0.986466
 C        -3.053717         0.871024         0.962578
 C        -2.817201        -0.573256         0.595759
 C        -3.345771        -1.733794         1.472169
 C        -2.228208        -1.987595         2.503877
 O        -1.005733        -2.360139         1.949695
 C        -1.036775        -1.208517         2.886941
 C        -1.035391         0.157595         2.375169
 H        -1.015579         0.231451        -0.833135
 H        -3.693840         0.958401         1.818665
 H        -3.201631         1.598264         0.189345
 H        -3.018254        -0.661003        -0.506746
 H        -4.358422        -1.611816         1.994823
 H        -3.271495        -2.756841         1.019029
 H        -2.467112        -2.790335         3.267326
 H        -0.647957        -1.378852         3.828659
 H        -1.627763         0.728263         3.124142
 H        -0.084347         0.627188         2.195961
