19
Iteration:  3511
 O        -0.896779         1.044454        -0.181439
 C        -1.632495         0.357323         0.890056
 C        -2.900700         0.912547         1.368314
 C        -3.011871        -0.419608         0.603976
 C        -3.228946        -1.715617         1.274444
 C        -2.374290        -2.078832         2.469926
 O        -1.059948        -2.563200         2.230424
 C        -1.177947        -1.253875         2.887886
 C        -0.756348        -0.054460         1.971742
 H        -1.215912         1.988858        -0.230835
 H        -3.114976         0.910988         2.498371
 H        -3.356664         1.795654         0.905679
 H        -3.159247        -0.346751        -0.418375
 H        -4.319760        -1.709537         1.749356
 H        -3.108660        -2.644258         0.694442
 H        -2.911725        -2.693626         3.233355
 H        -0.865802        -1.372963         3.981294
 H        -0.484649         0.870971         2.475919
 H         0.243267        -0.380956         1.544938
