19
Iteration:  3845
 O        -1.044719         1.031349        -0.169097
 C        -1.650902         0.397936         0.923024
 C        -2.938341         0.915561         1.346349
 C        -2.820118        -0.427796         0.567446
 C        -3.261475        -1.729794         1.292214
 C        -2.427002        -1.995940         2.499021
 O        -1.017409        -2.617105         2.237692
 C        -1.147740        -1.294228         2.785928
 C        -0.740374        -0.038466         2.005074
 H        -0.206845         1.522982         0.017497
 H        -3.398700         0.574185         2.361918
 H        -3.398998         1.857340         0.877324
 H        -3.042056        -0.386760        -0.459078
 H        -4.338135        -1.538765         1.625682
 H        -3.258912        -2.593099         0.625901
 H        -2.918140        -2.383372         3.419237
 H        -0.723818        -1.199703         3.853318
 H        -0.767081         0.784112         2.676165
 H         0.279997        -0.105721         1.688399
