19
Iteration:  3743
 O        -1.096225         1.161515        -0.129454
 C        -1.640184         0.406805         0.895049
 C        -2.955575         0.892309         1.369510
 C        -2.851852        -0.371054         0.486830
 C        -3.089858        -1.739996         1.216233
 C        -2.393971        -1.999422         2.569537
 O        -1.166754        -2.705829         2.401005
 C        -1.137899        -1.277079         2.851784
 C        -0.610786        -0.161411         1.857319
 H        -1.261014         2.115648        -0.013015
 H        -3.360950         0.686513         2.346166
 H        -3.399737         1.682094         0.840220
 H        -3.212836        -0.303903        -0.611474
 H        -4.167094        -1.608359         1.461309
 H        -2.950116        -2.627662         0.642224
 H        -3.060824        -2.312965         3.370337
 H        -0.801970        -1.016320         3.835893
 H        -0.241305         0.683462         2.457383
 H         0.227094        -0.506127         1.194772
