19
Iteration:  2999
 O        -0.980224         0.850994        -0.238580
 C        -1.645100         0.432572         0.969069
 C        -2.911760         1.133673         1.292588
 C        -2.967217        -0.356642         0.614144
 C        -3.306818        -1.646963         1.394573
 C        -2.281518        -2.175332         2.457273
 O        -0.953534        -2.496133         1.998007
 C        -1.160408        -1.354244         2.867319
 C        -0.819564        -0.002352         2.280111
 H        -1.082247        -0.041734        -0.693487
 H        -3.328351         1.254474         2.254200
 H        -3.301473         1.970727         0.640351
 H        -3.159242        -0.401338        -0.484940
 H        -4.234183        -1.777897         1.856993
 H        -3.316111        -2.371797         0.537336
 H        -2.842528        -2.805645         3.269527
 H        -0.708708        -1.389243         3.877208
 H        -0.715297         0.759629         3.091050
 H         0.146031        -0.147539         1.811659
