19
Iteration:  1270charge 0 multiplicity 1
 O        -0.948089         1.015539        -0.131746
 C        -1.660896         0.365013         0.897516
 C        -3.038000         0.912370         1.064021
 C        -2.894609        -0.485384         0.500789
 C        -3.263389        -1.684907         1.376331
 C        -2.292120        -2.096017         2.562408
 O        -0.920685        -2.555403         2.289308
 C        -1.168593        -1.299365         2.834707
 C        -0.805157         0.014307         2.084829
 H        -1.124604         1.977698         0.066934
 H        -3.604024         1.010022         1.993126
 H        -3.197856         1.545745         0.145634
 H        -3.143456        -0.696432        -0.522833
 H        -4.162936        -1.364100         1.931783
 H        -3.480228        -2.680093         0.877936
 H        -2.868478        -2.550172         3.342049
 H        -0.938686        -1.292602         3.995458
 H        -0.996837         0.925435         2.740866
 H         0.305503         0.133831         1.876388
