19
Iteration:  1760charge 0 multiplicity 1
 O        -1.153837         1.216863        -0.201208
 C        -1.617824         0.371400         0.847162
 C        -2.996888         0.794157         1.398335
 C        -2.819368        -0.388828         0.517241
 C        -3.168209        -1.692361         1.141605
 C        -2.402372        -1.907045         2.551700
 O        -1.208264        -2.704978         2.525031
 C        -1.102806        -1.205807         2.840850
 C        -0.545893        -0.234703         1.881199
 H        -0.431579         1.804063         0.048531
 H        -3.470525         0.626614         2.306953
 H        -3.454109         1.634963         0.815278
 H        -3.040500        -0.227265        -0.513317
 H        -4.251572        -1.879528         1.099189
 H        -2.698453        -2.514466         0.497570
 H        -2.953443        -2.241288         3.492221
 H        -0.743337        -1.028319         3.856542
 H        -0.194208         0.590108         2.555371
 H         0.263457        -0.705636         1.348040
