19
Iteration:  3154charge 0 multiplicity 1
 O        -0.876952         0.847000        -0.200193
 C        -1.641307         0.332243         0.969416
 C        -2.906953         0.947147         1.319743
 C        -3.040650        -0.417707         0.706797
 C        -3.412194        -1.656530         1.402784
 C        -2.389728        -2.118600         2.460547
 O        -0.967471        -2.320581         1.903691
 C        -1.134635        -1.258299         2.814246
 C        -0.793524        -0.010478         2.179309
 H        -0.152206         0.234586        -0.147469
 H        -2.865421         1.246870         2.426247
 H        -3.220166         1.737192         0.557162
 H        -3.261021        -0.414285        -0.369010
 H        -4.396693        -1.596646         1.869161
 H        -3.396620        -2.623020         0.787561
 H        -2.670722        -2.990070         3.299834
 H        -0.763024        -1.574895         3.794780
 H        -0.882093         0.763635         3.002681
 H         0.348085         0.080411         2.091712
