19
Iteration:  2823charge 0 multiplicity 1
 O        -1.082483         0.932117        -0.231597
 C        -1.603553         0.409029         0.961384
 C        -2.940856         0.946404         1.458105
 C        -2.805614        -0.365438         0.636510
 C        -3.251606        -1.727769         1.173714
 C        -2.366157        -2.030810         2.491177
 O        -1.082473        -2.473475         2.180005
 C        -1.207873        -1.266846         2.831159
 C        -0.676711        -0.064545         2.081091
 H        -0.972171         0.113136        -0.784585
 H        -2.909497         0.766073         2.557997
 H        -3.228829         1.849316         1.061083
 H        -3.146156        -0.147901        -0.400325
 H        -4.412576        -1.545622         1.444608
 H        -2.941877        -2.573313         0.459529
 H        -2.945333        -2.609960         3.274456
 H        -0.840913        -1.316963         3.827762
 H        -0.659171         0.784928         2.821112
 H         0.324317        -0.360134         1.781444
