19
Iteration:  4891
 O        -1.007952         0.950829        -0.203192
 C        -1.608566         0.344686         0.974505
 C        -2.945837         0.905895         1.269149
 C        -2.910633        -0.466066         0.616400
 C        -3.301877        -1.674273         1.400837
 C        -2.337624        -2.086668         2.413607
 O        -1.003600        -2.518401         2.076259
 C        -1.139731        -1.301912         2.825632
 C        -0.729734         0.024659         2.135242
 H        -1.134075         1.926421        -0.021251
 H        -3.185018         0.898961         2.394041
 H        -3.222211         1.844039         0.817030
 H        -3.058222        -0.352699        -0.413041
 H        -4.238006        -1.306177         1.745299
 H        -3.615750        -2.604950         0.937974
 H        -2.878496        -2.621677         3.178350
 H        -0.887394        -1.340789         3.943904
 H        -0.846215         0.902450         2.815997
 H         0.347498        -0.138374         1.814107
