19
Iteration:   914charge 0 multiplicity 1
 O        -0.891488         1.044955        -0.194234
 C        -1.668469         0.332883         0.819284
 C        -3.073078         0.803926         1.199178
 C        -2.866982        -0.569329         0.505869
 C        -3.175465        -1.766212         1.326742
 C        -2.399661        -1.988637         2.602181
 O        -1.089522        -2.420331         2.219718
 C        -1.075354        -1.228520         2.956025
 C        -0.761166        -0.022962         2.105988
 H        -1.380721         1.863949        -0.265816
 H        -3.154382         0.654540         2.280949
 H        -3.564644         1.772958         0.777674
 H        -2.902510        -0.454185        -0.588051
 H        -4.287906        -1.671470         1.619395
 H        -2.937975        -2.732754         0.885640
 H        -3.015944        -2.523015         3.327810
 H        -0.947921        -1.387029         4.016477
 H        -0.645772         0.919094         2.583622
 H         0.185285        -0.079142         1.586500
