19
Iteration:   900charge 0 multiplicity 1
 O        -0.931084         0.975603        -0.186386
 C        -1.613765         0.328506         0.903756
 C        -3.008060         0.818036         1.222864
 C        -2.802623        -0.520897         0.532060
 C        -3.264021        -1.773385         1.340243
 C        -2.320934        -2.030437         2.517788
 O        -1.008558        -2.491999         2.196289
 C        -1.255669        -1.136188         2.930394
 C        -0.772804         0.067876         2.083231
 H        -1.379125         1.839728        -0.399149
 H        -3.357270         0.972777         2.285343
 H        -3.460651         1.513225         0.536425
 H        -3.191928        -0.601881        -0.479957
 H        -4.301318        -1.600314         1.757100
 H        -3.426944        -2.652754         0.704381
 H        -2.682235        -2.673669         3.354073
 H        -0.757919        -1.144069         3.842807
 H        -0.788687         0.932527         2.815858
 H         0.247856        -0.276383         1.875088
