19
Iteration:  2649charge 0 multiplicity 1
 O        -1.074747         1.058216        -0.193521
 C        -1.719157         0.414940         0.953573
 C        -2.944523         1.042614         1.405983
 C        -2.984957        -0.235325         0.717014
 C        -3.174199        -1.766141         1.098129
 C        -2.380072        -2.054067         2.405843
 O        -0.988378        -2.626085         2.411555
 C        -1.178202        -1.239756         2.884675
 C        -0.619158        -0.240295         1.940412
 H        -0.806449         0.392486        -0.824421
 H        -2.973334         1.243233         2.415931
 H        -3.371495         1.825580         0.755810
 H        -3.234137        -0.196158        -0.312615
 H        -4.226576        -1.951175         1.242926
 H        -2.805321        -2.362212         0.299329
 H        -3.133872        -2.579164         3.117676
 H        -1.039428        -1.062740         3.903966
 H        -0.140942         0.484242         2.665513
 H         0.145278        -0.675197         1.210129
