19
Iteration:   267charge 0 multiplicity 1
 O        -1.118292         1.258031        -0.128660
 C        -1.643857         0.300862         0.856984
 C        -3.044276         0.758721         1.147237
 C        -2.899001        -0.585430         0.482342
 C        -3.078488        -1.917437         1.115871
 C        -2.373239        -1.899855         2.530062
 O        -1.036591        -2.471642         2.680196
 C        -1.182514        -1.112905         2.934544
 C        -0.661886        -0.135321         1.872291
 H        -0.223396         1.543278         0.086702
 H        -3.593154         0.765565         2.182202
 H        -3.336465         1.567613         0.512404
 H        -3.237893        -0.467766        -0.615523
 H        -4.206815        -2.055422         1.210869
 H        -2.705857        -2.751851         0.453080
 H        -3.045176        -2.170050         3.339650
 H        -1.118867        -0.859734         4.017862
 H        -0.131715         0.655435         2.353309
 H         0.075313        -0.614523         1.196339
