19
Iteration:   352
 O        -1.121083         1.142882        -0.280797
 C        -1.672026         0.371691         0.766825
 C        -2.918131         0.807723         1.330477
 C        -2.810789        -0.494035         0.511928
 C        -2.975089        -1.891409         1.058654
 C        -2.415148        -1.993194         2.483235
 O        -0.983089        -2.442256         2.716751
 C        -1.408651        -1.057806         2.959710
 C        -0.736842        -0.249214         1.902532
 H        -0.924029         1.983879         0.222468
 H        -3.012546         1.094866         2.465371
 H        -3.328129         1.632171         0.778967
 H        -3.358018        -0.424184        -0.398863
 H        -4.013342        -2.288175         1.014051
 H        -2.464277        -2.690219         0.518710
 H        -2.936632        -2.737238         3.143333
 H        -1.313505        -0.723556         4.014024
 H        -0.499689         0.726585         2.507284
 H         0.157713        -0.614540         1.424080
