19
Iteration:  3039
 O        -0.848796         0.886819        -0.153113
 C        -1.657488         0.403052         1.008446
 C        -2.996385         0.909959         1.258837
 C        -2.970236        -0.405086         0.633447
 C        -3.395110        -1.695813         1.480852
 C        -2.312834        -2.049242         2.486857
 O        -1.084597        -2.436289         1.896274
 C        -1.109269        -1.294043         2.804418
 C        -0.735976         0.040285         2.176432
 H         0.039372         0.558704        -0.266996
 H        -3.350925         0.771838         2.245068
 H        -3.435046         1.714487         0.603202
 H        -3.299892        -0.429639        -0.445841
 H        -4.388853        -1.409017         1.939976
 H        -3.516141        -2.633049         0.895260
 H        -2.567650        -2.764885         3.231688
 H        -0.635054        -1.531260         3.785872
 H        -0.669328         0.879326         2.894177
 H         0.287473        -0.176464         1.842970
