19
Iteration:   269charge 0 multiplicity 1
 O        -1.112221         1.254664        -0.130299
 C        -1.644670         0.302382         0.857115
 C        -3.047870         0.747837         1.165270
 C        -2.912481        -0.591377         0.475175
 C        -3.085996        -1.918414         1.123129
 C        -2.364447        -1.880030         2.535711
 O        -1.041546        -2.471070         2.665502
 C        -1.182889        -1.103871         2.935493
 C        -0.661020        -0.146315         1.876387
 H        -0.254377         1.541025         0.157146
 H        -3.605420         0.769954         2.111341
 H        -3.288963         1.553610         0.530292
 H        -3.188780        -0.473191        -0.673589
 H        -4.158875        -2.107094         1.206830
 H        -2.594940        -2.690301         0.462214
 H        -3.044551        -2.077948         3.337946
 H        -1.130346        -0.905186         3.997770
 H        -0.163369         0.651474         2.367794
 H         0.079876        -0.624216         1.153436
