19
Iteration:   649charge 0 multiplicity 1
 O        -0.798918         0.778167        -0.074736
 C        -1.727354         0.352989         0.906054
 C        -3.129544         0.992047         0.884958
 C        -2.865635        -0.483338         0.541162
 C        -3.328356        -1.714864         1.518377
 C        -2.222846        -2.213669         2.485355
 O        -0.783727        -2.378890         2.141761
 C        -1.197346        -1.251518         2.882445
 C        -0.964093         0.169153         2.251615
 H        -1.304000         1.390947        -0.586431
 H        -3.518404         1.077492         1.891909
 H        -3.602236         1.645822         0.141461
 H        -3.247708        -0.539493        -0.502417
 H        -4.158419        -1.397472         2.130687
 H        -3.682587        -2.433027         0.820037
 H        -2.497408        -3.040945         3.165619
 H        -0.906464        -1.360870         3.912125
 H        -1.204133         0.923298         2.930165
 H         0.090632         0.222699         2.201495
