19
Iteration:  1762
 O        -1.157107         1.210210        -0.206965
 C        -1.607351         0.358096         0.849160
 C        -3.010869         0.814728         1.397145
 C        -2.802427        -0.380625         0.527563
 C        -3.166691        -1.705097         1.125781
 C        -2.396894        -1.917117         2.557392
 O        -1.209625        -2.704042         2.522253
 C        -1.112304        -1.199541         2.824760
 C        -0.537572        -0.234057         1.892648
 H        -0.510886         1.843602         0.088088
 H        -3.381521         0.663619         2.413269
 H        -3.433101         1.575152         0.812460
 H        -3.078890        -0.263884        -0.512288
 H        -4.270827        -1.839473         1.108900
 H        -2.690162        -2.491321         0.536077
 H        -2.953822        -2.197244         3.509641
 H        -0.820019        -1.015043         3.868286
 H        -0.222734         0.559305         2.552211
 H         0.231780        -0.679627         1.308626
