19
Iteration:  3227
 O        -0.830663         1.001055        -0.024977
 C        -1.681223         0.391747         0.919742
 C        -3.005393         1.024618         1.118021
 C        -2.908652        -0.445085         0.532602
 C        -3.307563        -1.595927         1.571121
 C        -2.284199        -2.187441         2.557059
 O        -1.131270        -2.537447         1.963558
 C        -0.981285        -1.358200         2.776953
 C        -0.886793         0.020215         2.169454
 H        -0.972216         0.664689        -0.922317
 H        -3.318876         1.096778         2.219569
 H        -3.179667         1.665916         0.279749
 H        -3.284532        -0.733817        -0.446452
 H        -4.193211        -1.210377         2.087020
 H        -3.654965        -2.486104         0.958927
 H        -2.487781        -2.927014         3.331629
 H        -0.568558        -1.661391         3.779687
 H        -0.972147         0.770881         2.989343
 H         0.092914         0.298159         1.781168
