19
Iteration:  4296
 O        -1.144717         1.189675        -0.260521
 C        -1.589213         0.450789         0.813234
 C        -2.948117         0.829671         1.420099
 C        -2.851888        -0.381834         0.588601
 C        -3.160366        -1.838341         1.217551
 C        -2.453213        -1.993962         2.513286
 O        -1.168401        -2.717429         2.406680
 C        -1.093360        -1.269277         2.852868
 C        -0.628725        -0.051870         1.916809
 H        -0.346770         1.610520         0.184342
 H        -3.089574         0.626220         2.457175
 H        -3.195528         1.881864         1.120792
 H        -3.127245        -0.306285        -0.434881
 H        -4.278571        -1.829518         1.473029
 H        -2.947531        -2.527358         0.396251
 H        -2.996533        -2.288398         3.410177
 H        -0.881134        -1.109379         3.993395
 H        -0.354010         0.802273         2.607799
 H         0.317340        -0.271125         1.398292
