19
Iteration:   717
 O        -0.864086         0.845870        -0.118669
 C        -1.602146         0.338010         0.959186
 C        -3.092303         0.897538         0.967824
 C        -2.786449        -0.505369         0.548571
 C        -3.284914        -1.716997         1.532437
 C        -2.185301        -2.049468         2.524254
 O        -1.017425        -2.417929         1.946636
 C        -1.072103        -1.228792         2.881082
 C        -1.082562         0.175580         2.355317
 H        -0.790912         0.170120        -0.839857
 H        -3.709840         1.012534         1.890221
 H        -3.341937         1.630787         0.145451
 H        -3.067242        -0.776795        -0.465215
 H        -4.276489        -1.514464         1.888182
 H        -3.284362        -2.663249         0.996394
 H        -2.503761        -2.754180         3.272227
 H        -0.667103        -1.230913         3.977053
 H        -1.527764         0.830301         3.110674
 H        -0.042413         0.617893         2.364769
