19
Iteration:  3110
 O        -0.958474         0.946383        -0.107831
 C        -1.653210         0.485332         1.027202
 C        -3.090087         1.011018         1.107806
 C        -2.804672        -0.363466         0.621189
 C        -3.296950        -1.557838         1.485263
 C        -2.337482        -2.109946         2.566158
 O        -1.030486        -2.571343         1.978775
 C        -1.017915        -1.418969         2.794015
 C        -0.810115        -0.051754         2.145011
 H        -0.960941         0.303764        -0.806022
 H        -3.671091         1.077321         2.102993
 H        -3.091594         1.701870         0.270344
 H        -3.024166        -0.492147        -0.423267
 H        -4.161001        -1.236508         2.078244
 H        -3.685798        -2.336197         0.759842
 H        -2.998322        -2.826891         3.226266
 H        -0.483616        -1.480802         3.780752
 H        -0.854842         0.624176         3.065616
 H         0.288968        -0.172291         1.865394
