19
Iteration:  1132
 O        -1.169016         1.099976        -0.268264
 C        -1.643333         0.321593         0.914352
 C        -3.051389         0.789137         1.374132
 C        -2.872825        -0.452442         0.501748
 C        -2.962868        -1.751570         1.158281
 C        -2.442661        -1.862679         2.491510
 O        -1.137439        -2.566416         2.566956
 C        -1.166964        -1.189942         2.912803
 C        -0.608303        -0.132570         1.867498
 H        -0.773504         1.891788         0.148118
 H        -3.497373         0.497807         2.352320
 H        -3.469123         1.616437         0.785612
 H        -2.986315        -0.245537        -0.538565
 H        -3.904454        -2.230394         0.882376
 H        -2.227021        -2.431824         0.774319
 H        -2.973614        -2.366487         3.271072
 H        -1.010416        -0.973713         3.888239
 H        -0.145633         0.745647         2.404099
 H         0.261703        -0.606378         1.434458
