19
Iteration:  3903charge 0 multiplicity 1
 O        -0.968837         0.957647        -0.099229
 C        -1.649042         0.361239         1.005012
 C        -3.021006         0.954882         1.176825
 C        -2.913125        -0.417327         0.561509
 C        -3.261500        -1.613839         1.413949
 C        -2.417230        -2.111854         2.482358
 O        -0.936660        -2.491070         2.131648
 C        -1.126371        -1.382297         2.805351
 C        -0.689873        -0.086338         2.055923
 H        -1.179964         1.881477        -0.132079
 H        -3.475216         1.033794         2.188374
 H        -3.410608         1.716476         0.512902
 H        -2.798069        -0.458181        -0.580704
 H        -4.114685        -1.207988         2.001718
 H        -3.832935        -2.458215         0.856668
 H        -2.844241        -2.621678         3.329081
 H        -1.135010        -1.271426         3.900353
 H        -0.568273         0.719916         2.748525
 H         0.198651        -0.170278         1.460163
