19
Iteration:  1542
 O        -0.839411         1.030702        -0.077172
 C        -1.636104         0.305567         0.898147
 C        -3.098971         0.826847         1.196033
 C        -2.857607        -0.445533         0.559353
 C        -3.238146        -1.733497         1.378598
 C        -2.389490        -1.992062         2.549782
 O        -1.104662        -2.437976         2.102686
 C        -1.094332        -1.252851         2.912744
 C        -0.759322         0.029817         2.068852
 H        -1.110563         0.730999        -0.959561
 H        -3.538513         0.866507         2.254839
 H        -3.404901         1.612975         0.591429
 H        -2.985485        -0.554295        -0.541522
 H        -4.323909        -1.930264         1.495810
 H        -3.043958        -2.664347         0.849873
 H        -2.704483        -2.674362         3.382023
 H        -0.863525        -1.445928         4.000740
 H        -0.898798         0.824039         2.788213
 H         0.276380        -0.006864         1.787028
