19
Iteration:  3813
 O        -1.055069         0.953698        -0.251878
 C        -1.637963         0.407557         0.924533
 C        -2.973723         0.930032         1.435343
 C        -2.898277        -0.339540         0.601579
 C        -3.212689        -1.753781         1.188883
 C        -2.392650        -2.039630         2.444012
 O        -0.965976        -2.459387         2.262603
 C        -1.290892        -1.241320         2.913962
 C        -0.594359        -0.204176         2.038529
 H        -0.803102         1.889826        -0.092260
 H        -3.476295         0.614579         2.429574
 H        -3.331920         1.854597         0.820638
 H        -3.209647        -0.222355        -0.397245
 H        -4.301915        -1.724399         1.543524
 H        -3.101497        -2.485810         0.354824
 H        -2.931331        -2.624153         3.213876
 H        -1.027216        -1.244602         4.037467
 H        -0.334886         0.692914         2.531889
 H         0.267003        -0.678471         1.639954
