19
Iteration:  2264
 O        -0.961785         0.900755        -0.134471
 C        -1.634185         0.369138         0.967466
 C        -2.960473         1.091382         1.131433
 C        -2.850460        -0.420876         0.692682
 C        -3.397984        -1.565680         1.584656
 C        -2.297509        -2.120199         2.460107
 O        -1.038908        -2.478821         1.866750
 C        -1.110122        -1.404357         2.805250
 C        -0.805985        -0.019177         2.167410
 H        -0.159750         0.301024        -0.153344
 H        -3.444220         1.191552         2.115475
 H        -3.456318         1.796398         0.463667
 H        -3.012560        -0.509542        -0.358187
 H        -4.275922        -1.341465         2.259341
 H        -3.712166        -2.433582         0.911874
 H        -2.514560        -2.793484         3.391901
 H        -0.617669        -1.582730         3.766936
 H        -0.984967         0.586107         3.057949
 H         0.273529        -0.031986         1.922562
