19
Iteration:  2316
 O        -0.822889         0.691741        -0.158763
 C        -1.647142         0.421541         0.969995
 C        -3.038077         1.075412         1.249264
 C        -2.936349        -0.323830         0.761211
 C        -3.278650        -1.603437         1.478640
 C        -2.307248        -2.127688         2.473373
 O        -0.996669        -2.416613         1.913356
 C        -1.139435        -1.431616         2.762450
 C        -0.890155         0.032501         2.156133
 H        -1.536059         0.758126        -0.874629
 H        -3.242244         1.484742         2.224819
 H        -3.219172         1.926971         0.659760
 H        -2.948085        -0.498555        -0.279806
 H        -4.251579        -1.416525         1.985570
 H        -3.408948        -2.422234         0.796529
 H        -2.671019        -2.852402         3.189722
 H        -0.540078        -1.504390         3.657802
 H        -1.048608         0.573162         3.077927
 H         0.234871         0.121348         2.085048
