19
Iteration:   464
 O        -0.913939         1.054822        -0.134687
 C        -1.685313         0.400462         0.849333
 C        -3.090649         0.735557         1.199459
 C        -2.876300        -0.549104         0.449257
 C        -3.192959        -1.898958         1.250614
 C        -2.336755        -2.084414         2.499554
 O        -0.961452        -2.450753         2.514383
 C        -1.319961        -1.056642         2.932483
 C        -0.625988         0.059503         1.946945
 H        -1.390983         1.787326        -0.486606
 H        -3.368163         0.608057         2.219101
 H        -3.697097         1.551011         0.697274
 H        -3.196566        -0.495625        -0.658164
 H        -4.267322        -1.787249         1.565284
 H        -3.101237        -2.754899         0.576468
 H        -2.847470        -2.577809         3.277278
 H        -1.134876        -0.823323         3.948261
 H        -0.340578         0.984827         2.618587
 H         0.299243        -0.342355         1.463123
