19
Iteration:  2867charge 0 multiplicity 1
 O        -0.901254         1.054244        -0.073432
 C        -1.724540         0.354842         0.885723
 C        -2.974216         1.104877         1.257656
 C        -2.990584        -0.325527         0.583875
 C        -3.261848        -1.655433         1.383395
 C        -2.346851        -2.139862         2.523668
 O        -0.991630        -2.595459         2.142774
 C        -1.107934        -1.324159         2.865190
 C        -0.792227        -0.122126         1.993188
 H        -0.566534         0.477253        -0.804501
 H        -3.369993         0.984529         2.275810
 H        -3.333297         1.778835         0.560459
 H        -3.316922        -0.459339        -0.482584
 H        -4.178895        -1.631974         1.979168
 H        -3.217438        -2.524028         0.662666
 H        -2.870224        -2.641696         3.436268
 H        -0.629688        -1.171001         3.808853
 H        -0.606612         0.564414         2.829675
 H         0.159610        -0.331397         1.531206
