19
Iteration:  4047charge 0 multiplicity 1
 O        -0.874638         0.830182        -0.104067
 C        -1.641317         0.340838         0.960800
 C        -3.098130         0.978158         1.189994
 C        -2.871366        -0.473239         0.626976
 C        -3.357697        -1.656355         1.456679
 C        -2.354150        -2.013472         2.515967
 O        -1.024545        -2.461179         1.955860
 C        -1.099199        -1.345648         2.762177
 C        -0.765520         0.067890         2.185646
 H        -0.620203         1.705021         0.253333
 H        -3.521339         1.082115         2.185674
 H        -3.380952         1.653623         0.456845
 H        -3.091747        -0.453621        -0.439145
 H        -4.248192        -1.467322         2.026481
 H        -3.433800        -2.614216         0.909792
 H        -2.649941        -2.813659         3.180150
 H        -0.489259        -1.402082         3.641642
 H        -0.668612         0.812148         2.925458
 H         0.145100        -0.097483         1.660729
