19
Iteration:   473
 O        -0.912805         1.012951        -0.108344
 C        -1.684988         0.278247         0.878893
 C        -3.133912         0.772676         1.203328
 C        -2.887750        -0.524354         0.446331
 C        -3.129629        -1.832923         1.207357
 C        -2.387379        -2.053329         2.560356
 O        -0.955455        -2.368972         2.475530
 C        -1.204506        -1.082763         2.869123
 C        -0.684452         0.031852         1.989172
 H        -1.490116         1.608269        -0.563028
 H        -3.529102         0.593900         2.196707
 H        -3.749752         1.617536         0.660189
 H        -3.093179        -0.485091        -0.697289
 H        -4.186621        -1.911315         1.468701
 H        -3.057866        -2.695835         0.560241
 H        -2.975646        -2.584168         3.359812
 H        -1.082004        -0.977901         3.922746
 H        -0.402042         0.949388         2.646605
 H         0.225647        -0.395778         1.543789
