19
Iteration:  1666charge 0 multiplicity 1
 O        -1.004726         0.990784        -0.247579
 C        -1.635003         0.370520         0.915412
 C        -3.043185         0.886939         1.420116
 C        -2.857936        -0.336896         0.532333
 C        -3.096319        -1.746341         1.142605
 C        -2.433942        -2.017646         2.481107
 O        -1.123209        -2.584091         2.428461
 C        -1.150126        -1.219585         2.824789
 C        -0.598360        -0.060192         2.027536
 H        -1.682012         1.520874        -0.689813
 H        -3.093780         0.795696         2.490509
 H        -3.511191         1.827548         1.062273
 H        -3.259984        -0.320797        -0.466713
 H        -4.159776        -2.016698         1.313623
 H        -2.746859        -2.456225         0.452766
 H        -3.049474        -2.388360         3.274313
 H        -1.062879        -1.079107         3.931480
 H        -0.523102         0.743519         2.730819
 H         0.322341        -0.565535         1.700314
