19
Iteration:  3193charge 0 multiplicity 1
 O        -0.958040         0.834882        -0.156934
 C        -1.679205         0.457192         1.038734
 C        -3.023826         1.057485         1.174873
 C        -2.933874        -0.401364         0.624468
 C        -3.362542        -1.579100         1.439516
 C        -2.326461        -2.163842         2.433460
 O        -0.957642        -2.498858         1.991321
 C        -1.079889        -1.388139         2.789176
 C        -0.744873         0.021336         2.241701
 H        -0.497373        -0.022894        -0.381244
 H        -3.456166         1.392377         2.132014
 H        -3.401180         1.890224         0.637623
 H        -2.970534        -0.391009        -0.448623
 H        -4.295429        -1.424819         2.017621
 H        -3.644861        -2.289104         0.657316
 H        -2.652035        -2.897051         3.172376
 H        -0.775238        -1.328717         3.890369
 H        -0.691922         0.703287         3.120675
 H         0.250266         0.039785         1.758515
