19
Iteration:  2139charge 0 multiplicity 1
 O        -0.861673         0.715449        -0.115942
 C        -1.661205         0.311464         0.992964
 C        -2.973418         1.043427         1.325233
 C        -2.985853        -0.432230         0.625411
 C        -3.378812        -1.593585         1.444216
 C        -2.344188        -2.078134         2.385155
 O        -0.943947        -2.384731         1.906046
 C        -1.135875        -1.314740         2.881617
 C        -0.757323         0.074570         2.202412
 H        -1.362095         0.733648        -0.990082
 H        -3.173909         1.213535         2.426524
 H        -3.216474         1.910024         0.588193
 H        -3.419125        -0.449763        -0.450796
 H        -4.380696        -1.458370         2.020108
 H        -3.574086        -2.458856         0.791364
 H        -2.609623        -2.931183         3.013925
 H        -0.697462        -1.583308         3.868914
 H        -0.664491         0.974999         2.854836
 H         0.241267        -0.280256         1.765295
