19
Iteration:   990charge 0 multiplicity 1
 O        -1.125476         1.161470        -0.258581
 C        -1.664117         0.382131         0.784044
 C        -2.990476         0.838352         1.382781
 C        -2.843707        -0.451671         0.518566
 C        -2.988986        -1.793205         1.146842
 C        -2.388669        -2.069236         2.439090
 O        -1.028992        -2.490469         2.596533
 C        -1.278186        -1.097455         2.988576
 C        -0.720709        -0.251884         1.898893
 H        -0.445803         1.723229         0.174996
 H        -3.173413         0.541222         2.433875
 H        -3.435683         1.840917         1.092872
 H        -3.323939        -0.419867        -0.465074
 H        -4.116426        -1.980971         1.185605
 H        -2.616734        -2.576097         0.469760
 H        -3.148454        -2.518770         3.083206
 H        -1.225581        -0.827749         3.974239
 H        -0.183947         0.690050         2.241968
 H         0.039154        -0.796102         1.320625
