19
Iteration:  1468charge 0 multiplicity 1
 O        -0.876111         0.758836        -0.100082
 C        -1.751600         0.348155         0.955333
 C        -3.026376         1.143334         1.082753
 C        -2.873351        -0.500912         0.644127
 C        -3.268666        -1.742154         1.394521
 C        -2.286013        -2.123442         2.437519
 O        -0.941843        -2.422123         2.085952
 C        -1.130348        -1.233158         2.889440
 C        -0.888270         0.030782         2.156797
 H        -0.884668         1.731777        -0.092820
 H        -3.446891         1.308005         2.139377
 H        -3.236427         1.797675         0.283253
 H        -3.076691        -0.615742        -0.437585
 H        -4.335516        -1.727002         1.780984
 H        -3.422841        -2.533899         0.627817
 H        -2.618919        -2.843704         3.122264
 H        -0.812150        -1.459646         3.962600
 H        -1.211183         0.802635         2.950109
 H         0.240785         0.165809         1.978140
