19
Iteration:    53charge 0 multiplicity 1
 O        -0.795847         0.680940        -0.136516
 C        -1.727242         0.350230         0.903671
 C        -3.142167         0.958290         0.823549
 C        -2.832676        -0.577449         0.568058
 C        -3.231599        -1.782543         1.455634
 C        -2.181367        -2.113082         2.510260
 O        -0.819250        -2.267899         2.092686
 C        -1.244011        -1.184350         2.996967
 C        -1.096861         0.173125         2.344438
 H        -1.048302         1.564029        -0.456815
 H        -3.582564         1.260440         1.725648
 H        -3.455260         1.648970         0.075625
 H        -2.567186        -0.875055        -0.526978
 H        -4.169281        -1.556956         2.022042
 H        -3.438276        -2.711587         0.846771
 H        -2.497531        -2.889918         3.223430
 H        -0.895139        -1.227545         4.023149
 H        -1.539119         0.892654         3.029739
 H        -0.075697         0.481644         2.321443
