19
Iteration:  1786
 O        -1.062171         1.112711        -0.194214
 C        -1.651242         0.453493         0.887935
 C        -2.843492         0.898076         1.457485
 C        -2.864882        -0.414922         0.632246
 C        -3.104338        -1.812619         1.129322
 C        -2.475739        -1.981138         2.479553
 O        -1.164581        -2.606263         2.511171
 C        -1.224231        -1.206699         2.807295
 C        -0.586705        -0.176438         1.827750
 H        -1.399193         2.026259        -0.356774
 H        -3.228524         0.695940         2.511169
 H        -3.296158         1.702613         0.954591
 H        -3.083064        -0.276628        -0.460431
 H        -4.186651        -2.017326         1.281238
 H        -2.707372        -2.547716         0.453955
 H        -3.097579        -2.491719         3.201379
 H        -0.922630        -1.014458         3.850706
 H        -0.154013         0.574855         2.434986
 H         0.111525        -0.779628         1.226262
