19
Iteration:  1741
 O        -1.092536         1.227122        -0.093498
 C        -1.686775         0.383740         0.907896
 C        -3.035192         0.818881         1.330125
 C        -2.883547        -0.411448         0.402228
 C        -3.064132        -1.747063         1.200576
 C        -2.438432        -1.886626         2.556140
 O        -1.167720        -2.606559         2.475149
 C        -1.124069        -1.284065         2.868647
 C        -0.571660        -0.215497         1.806470
 H        -0.100459         1.193739         0.005157
 H        -3.076501         0.591450         2.412649
 H        -3.262726         1.814201         1.080979
 H        -3.228362        -0.526621        -0.612617
 H        -4.132499        -1.732595         1.506058
 H        -2.843311        -2.660308         0.703158
 H        -3.080502        -2.177453         3.458650
 H        -0.956948        -1.100642         3.949688
 H        -0.110868         0.573592         2.344244
 H        -0.005998        -0.701110         1.003713
