19
Iteration:  2511
 O        -0.961423         0.975223        -0.161164
 C        -1.646666         0.431520         0.880864
 C        -2.981000         1.043409         1.332137
 C        -2.978439        -0.350940         0.677151
 C        -3.169051        -1.712741         1.261524
 C        -2.371536        -2.022214         2.477817
 O        -1.017881        -2.661825         2.197213
 C        -1.123202        -1.304459         2.830052
 C        -0.782877        -0.100655         2.099727
 H        -1.137604         0.369230        -0.956141
 H        -3.276849         1.379740         2.295997
 H        -3.319302         1.884076         0.636480
 H        -3.521027        -0.311363        -0.244587
 H        -4.169536        -1.665615         1.742589
 H        -3.027911        -2.502309         0.531472
 H        -2.761548        -2.428232         3.295337
 H        -0.523606        -1.240910         3.778732
 H        -0.758684         0.762191         2.721426
 H         0.204912         0.018556         1.730850
