19
Iteration:  4101charge 0 multiplicity 1
 O        -0.947740         0.894840        -0.171158
 C        -1.612207         0.453398         0.908893
 C        -2.911033         1.018652         1.154166
 C        -2.911270        -0.406831         0.678875
 C        -3.380848        -1.702633         1.434652
 C        -2.320068        -2.148355         2.488915
 O        -0.925621        -2.512115         2.050994
 C        -1.200716        -1.360792         2.838064
 C        -0.839282        -0.019960         2.127015
 H        -1.083391         1.881047        -0.264729
 H        -3.203265         1.124257         2.206516
 H        -3.225123         1.816205         0.569455
 H        -3.035414        -0.501418        -0.393795
 H        -4.265682        -1.533384         2.085007
 H        -3.505853        -2.477558         0.708269
 H        -2.616377        -2.718266         3.367580
 H        -0.762905        -1.428317         3.884138
 H        -1.059259         0.694549         2.960946
 H         0.245992         0.100452         2.038664
