19
Iteration:  1819
 O        -0.910246         1.065727        -0.093722
 C        -1.691968         0.394503         0.827375
 C        -2.970326         0.898017         1.531364
 C        -3.035254        -0.331846         0.619935
 C        -3.072313        -1.720183         1.128554
 C        -2.401085        -1.945329         2.418737
 O        -1.044227        -2.548724         2.493174
 C        -1.239740        -1.190680         2.837909
 C        -0.685303        -0.263004         1.806680
 H        -0.989836         0.930507        -1.096589
 H        -3.127416         0.626487         2.638561
 H        -3.478622         1.769131         1.091944
 H        -3.530347        -0.384503        -0.406826
 H        -4.140391        -1.935165         1.387575
 H        -2.753335        -2.454294         0.436267
 H        -3.036296        -2.560926         3.011844
 H        -1.138436        -1.008115         3.921185
 H        -0.076061         0.492857         2.240895
 H         0.100389        -0.745176         1.170872
