19
Iteration:  1294
 O        -0.752677         0.845978        -0.067153
 C        -1.760685         0.417320         0.938740
 C        -3.167346         0.929640         1.087287
 C        -2.907471        -0.521563         0.555675
 C        -3.292919        -1.698467         1.407339
 C        -2.269204        -2.167529         2.515261
 O        -0.938166        -2.376520         2.148502
 C        -1.188333        -1.191650         2.881496
 C        -0.811977         0.031858         2.122909
 H        -1.132423         1.651568        -0.410884
 H        -3.485044         1.057725         2.109272
 H        -3.546638         1.617344         0.254960
 H        -3.144777        -0.669330        -0.520076
 H        -4.313220        -1.447932         1.765242
 H        -3.321589        -2.670193         0.822471
 H        -2.689165        -3.010714         3.024786
 H        -0.711855        -1.179542         3.910872
 H        -0.580413         0.872194         2.759929
 H         0.168137        -0.236690         1.699057
