19
Iteration:  3665
 O        -1.065201         1.074105        -0.226977
 C        -1.707595         0.471337         0.909856
 C        -2.993500         1.034553         1.499783
 C        -2.951343        -0.386916         0.570660
 C        -3.103338        -1.802450         1.143145
 C        -2.396018        -2.060958         2.469649
 O        -1.128362        -2.636438         2.502156
 C        -1.137498        -1.284429         2.776234
 C        -0.615569        -0.160168         1.896626
 H        -0.538715         1.798639         0.105903
 H        -3.245028         1.028898         2.516049
 H        -3.243260         1.950995         0.933584
 H        -3.228350        -0.248053        -0.503985
 H        -3.985425        -2.451342         0.975235
 H        -2.455414        -2.342425         0.457371
 H        -3.104118        -2.353133         3.240058
 H        -0.740356        -1.084561         3.784034
 H        -0.266982         0.601811         2.521779
 H         0.154991        -0.547128         1.201514
