19
Iteration:  4695
 O        -1.135008         1.011070        -0.246475
 C        -1.547517         0.532895         0.997360
 C        -3.048719         0.975855         1.150067
 C        -2.838423        -0.397474         0.606247
 C        -3.252957        -1.654136         1.342693
 C        -2.300022        -2.118456         2.557248
 O        -1.079801        -2.658704         2.156619
 C        -1.075418        -1.385889         2.860985
 C        -0.704167        -0.037886         2.153950
 H        -0.571489         1.808722        -0.107670
 H        -3.527317         1.118426         2.109868
 H        -3.516830         1.724113         0.385429
 H        -3.013505        -0.515162        -0.499955
 H        -4.368957        -1.531713         1.554339
 H        -2.990911        -2.628736         0.898127
 H        -2.844069        -2.753624         3.309584
 H        -0.589784        -1.580585         3.839693
 H        -0.846659         0.692127         2.930501
 H         0.314021         0.135575         1.808582
