19
Iteration:  4476
 O        -1.060751         1.158884        -0.243378
 C        -1.660077         0.452061         0.944494
 C        -3.040830         0.953134         1.367416
 C        -2.959091        -0.332585         0.614042
 C        -3.113205        -1.772124         1.220042
 C        -2.425913        -2.043129         2.510911
 O        -1.067266        -2.680312         2.452489
 C        -1.202552        -1.321470         2.806269
 C        -0.603547        -0.169665         1.862993
 H        -0.439242         1.933865        -0.168749
 H        -3.102440         0.989524         2.457334
 H        -3.362575         1.880971         0.883985
 H        -3.079876        -0.282937        -0.448243
 H        -4.150619        -2.190835         1.229166
 H        -2.510801        -2.472126         0.604228
 H        -3.045954        -2.320876         3.381065
 H        -0.888049        -1.217630         3.778611
 H        -0.144327         0.666417         2.470093
 H         0.226631        -0.748775         1.375264
