19
Iteration:  4369
 O        -1.035070         1.186620        -0.217879
 C        -1.675665         0.420136         0.843300
 C        -2.984651         0.884767         1.436792
 C        -2.974268        -0.392191         0.644248
 C        -3.002923        -1.732504         1.122407
 C        -2.434300        -1.957040         2.564367
 O        -1.164635        -2.677767         2.541927
 C        -1.131793        -1.291179         2.758462
 C        -0.645856        -0.240991         1.793762
 H        -1.190287         2.122329         0.096327
 H        -2.977614         0.860721         2.496851
 H        -3.393897         1.882437         1.073066
 H        -3.249394        -0.111645        -0.345174
 H        -4.049481        -1.903303         1.139527
 H        -2.502906        -2.437853         0.420166
 H        -3.024222        -2.509947         3.362595
 H        -0.786667        -1.205361         3.806893
 H        -0.286107         0.599332         2.370522
 H         0.245206        -0.643416         1.257837
