19
Iteration:  1478
 O        -0.891714         0.757308        -0.115441
 C        -1.713852         0.410412         0.941050
 C        -2.967551         1.095959         1.078423
 C        -2.963464        -0.409442         0.566509
 C        -3.250274        -1.750091         1.379686
 C        -2.272158        -2.188709         2.491212
 O        -0.877133        -2.428547         2.070276
 C        -1.198631        -1.288403         2.938952
 C        -0.910054         0.030881         2.232676
 H        -1.019294         1.622616        -0.482108
 H        -3.404978         1.392911         2.105876
 H        -3.348496         1.829237         0.447967
 H        -3.138121        -0.508291        -0.534310
 H        -4.257534        -1.643194         1.995509
 H        -3.244827        -2.595063         0.650135
 H        -2.794761        -2.871915         3.107618
 H        -0.933524        -1.180524         4.084022
 H        -0.928040         0.960468         2.944158
 H         0.097581         0.008035         1.677396
