19
Iteration:  4679
 O        -1.060882         0.951925        -0.226100
 C        -1.701252         0.420365         0.995188
 C        -3.073532         0.994696         1.200212
 C        -2.822101        -0.397053         0.576836
 C        -3.245725        -1.642023         1.340728
 C        -2.385458        -2.054393         2.501292
 O        -0.957938        -2.565193         2.152427
 C        -1.100253        -1.382953         2.866885
 C        -0.693880        -0.079253         2.145581
 H        -0.975270         1.942522        -0.016617
 H        -3.465639         0.946319         2.240823
 H        -3.237112         1.821945         0.593219
 H        -2.863654        -0.437715        -0.490029
 H        -4.216770        -1.597954         1.786762
 H        -3.418126        -2.432351         0.590935
 H        -2.861282        -2.670298         3.251255
 H        -0.842882        -1.329932         3.959558
 H        -0.417881         0.783593         2.865026
 H         0.270426        -0.440850         1.689130
