19
Iteration:  1929charge 0 multiplicity 1
 O        -0.895122         1.023303        -0.074465
 C        -1.650379         0.373535         0.905758
 C        -2.966949         0.994003         1.355868
 C        -2.967646        -0.402382         0.549685
 C        -3.236957        -1.690851         1.347508
 C        -2.394772        -2.048853         2.504989
 O        -1.055086        -2.500718         2.238154
 C        -1.170556        -1.298022         2.890589
 C        -0.674672        -0.180824         1.879433
 H        -1.386427         1.513747        -0.755017
 H        -3.334974         0.878367         2.383554
 H        -3.555170         1.875241         0.820925
 H        -3.200804        -0.531387        -0.553701
 H        -4.314429        -1.868403         1.580862
 H        -2.856951        -2.442532         0.670619
 H        -2.848941        -2.416008         3.378378
 H        -0.821791        -1.325938         3.974548
 H        -0.324002         0.664542         2.388991
 H        -0.000362        -0.574912         1.111684
