19
Iteration:  2744
 O        -1.066320         1.323451        -0.082937
 C        -1.690231         0.461934         0.974963
 C        -3.110540         0.903955         1.214344
 C        -2.840524        -0.410052         0.490401
 C        -3.244363        -1.619138         1.302231
 C        -2.368722        -1.948659         2.576298
 O        -1.122083        -2.712056         2.356004
 C        -1.048706        -1.361808         2.896253
 C        -0.541731        -0.300927         1.835822
 H        -0.481923         0.758553        -0.622016
 H        -3.551377         0.909786         2.174147
 H        -3.363031         1.692242         0.437028
 H        -2.985016        -0.532707        -0.559660
 H        -4.255454        -1.454469         1.864013
 H        -3.210187        -2.640698         0.799499
 H        -2.840238        -2.522997         3.322227
 H        -0.853109        -1.276456         3.988948
 H        -0.057641         0.558154         2.286912
 H         0.147921        -0.874581         1.283740
