19
Iteration:   212
 O        -1.004049         1.029573        -0.137504
 C        -1.706149         0.340830         0.867494
 C        -3.087537         0.809483         1.223696
 C        -2.828586        -0.547604         0.475341
 C        -3.042793        -1.867347         1.114111
 C        -2.362068        -2.005339         2.500365
 O        -1.043027        -2.386528         2.503866
 C        -1.274746        -1.107618         3.015742
 C        -0.654982        -0.007261         2.001940
 H        -1.403218         1.181477        -1.037877
 H        -3.326275         0.940199         2.330643
 H        -3.576027         1.503873         0.475192
 H        -3.150295        -0.461254        -0.582905
 H        -4.106415        -2.217670         1.116293
 H        -2.588412        -2.706894         0.563856
 H        -2.927410        -2.425001         3.353146
 H        -1.129962        -0.988943         4.125935
 H        -0.494325         0.831821         2.650627
 H         0.344084        -0.230480         1.590778
