19
Iteration:  2836
 O        -1.011955         0.935993        -0.220229
 C        -1.632497         0.426009         0.984210
 C        -2.926123         1.038176         1.412040
 C        -2.889444        -0.371594         0.674237
 C        -3.193291        -1.747334         1.238164
 C        -2.463930        -2.030071         2.419575
 O        -1.021291        -2.531129         2.163105
 C        -1.152238        -1.282319         2.851619
 C        -0.695546        -0.060011         2.092793
 H        -1.019034         0.243702        -0.877088
 H        -3.292526         1.092106         2.466805
 H        -3.557221         1.723186         0.831918
 H        -3.171417        -0.304389        -0.421816
 H        -4.420494        -1.839077         1.577910
 H        -3.295808        -2.515073         0.406628
 H        -2.845945        -2.608281         3.330856
 H        -0.934015        -1.245196         3.909176
 H        -0.353577         0.708877         2.871290
 H         0.267069        -0.310514         1.564561
