19
Iteration:  4530charge 0 multiplicity 1
 O        -0.945885         1.159667        -0.181324
 C        -1.615059         0.273249         0.862484
 C        -2.944410         0.837267         1.433609
 C        -2.965586        -0.476106         0.625015
 C        -3.229270        -1.789053         1.208106
 C        -2.411723        -1.975086         2.501670
 O        -1.101093        -2.526419         2.280141
 C        -1.226056        -1.173130         2.835066
 C        -0.585027        -0.104826         1.954353
 H        -0.897233         2.118565         0.039017
 H        -3.108035         0.557999         2.512660
 H        -3.574472         1.509767         0.894877
 H        -3.335274        -0.444883        -0.378922
 H        -4.336783        -1.614713         1.481006
 H        -3.089120        -2.667896         0.560444
 H        -2.953567        -2.520385         3.241539
 H        -0.876957        -1.100738         3.820866
 H        -0.183632         0.748338         2.509090
 H         0.236809        -0.731383         1.511194
