19
Iteration:   471charge 0 multiplicity 1
 O        -0.909691         1.021251        -0.112220
 C        -1.689251         0.290021         0.875330
 C        -3.121212         0.768802         1.196957
 C        -2.892153        -0.523060         0.434123
 C        -3.140249        -1.847892         1.222058
 C        -2.379236        -2.067557         2.550679
 O        -0.954987        -2.383008         2.485870
 C        -1.231161        -1.078120         2.876357
 C        -0.654883         0.058173         1.977510
 H        -1.474615         1.667690        -0.554915
 H        -3.535217         0.585334         2.215720
 H        -3.775685         1.569485         0.702094
 H        -3.118559        -0.458462        -0.652181
 H        -4.195178        -1.901696         1.462942
 H        -3.117552        -2.713679         0.553050
 H        -2.994998        -2.622045         3.373213
 H        -1.085902        -0.941189         3.969874
 H        -0.379708         0.882479         2.645149
 H         0.226599        -0.388502         1.537657
