19
Iteration:  1243charge 0 multiplicity 1
 O        -1.070742         1.059119        -0.283093
 C        -1.646220         0.467987         0.917922
 C        -3.078722         0.827647         1.108041
 C        -2.711831        -0.494863         0.528252
 C        -3.195598        -1.737806         1.332209
 C        -2.317259        -2.020912         2.606888
 O        -1.093522        -2.573867         2.238517
 C        -1.132343        -1.306358         2.958280
 C        -0.775109         0.026253         2.131784
 H        -0.614515         1.851792         0.079285
 H        -3.390573         0.666004         2.155926
 H        -3.516848         1.646319         0.564051
 H        -2.695187        -0.785082        -0.539665
 H        -4.231046        -1.474049         1.638303
 H        -3.031934        -2.670204         0.859100
 H        -2.998101        -2.432759         3.375126
 H        -0.774224        -1.419091         3.921225
 H        -0.660443         0.950693         2.723942
 H         0.225813        -0.151144         1.747431
