19
Iteration:  1825
 O        -0.912208         1.090116        -0.083981
 C        -1.676744         0.376745         0.896497
 C        -2.922033         0.901303         1.523365
 C        -3.028744        -0.353469         0.590459
 C        -3.123052        -1.718296         1.118720
 C        -2.362205        -1.980114         2.413350
 O        -1.075419        -2.572288         2.498661
 C        -1.187257        -1.166753         2.834896
 C        -0.732428        -0.224518         1.776042
 H        -1.010516         0.514366        -0.849140
 H        -3.282930         0.830982         2.518531
 H        -3.519486         1.719758         1.098962
 H        -3.522269        -0.327024        -0.341190
 H        -4.177442        -2.017466         1.193519
 H        -2.852206        -2.496719         0.312363
 H        -2.976205        -2.522415         3.203637
 H        -1.046132        -0.876230         3.872827
 H        -0.052187         0.566162         2.250083
 H         0.038363        -0.595271         1.099658
