19
Iteration:  2837charge 0 multiplicity 1
 O        -1.003499         0.939536        -0.216935
 C        -1.643152         0.422687         0.985181
 C        -2.926874         1.038810         1.408708
 C        -2.898335        -0.368689         0.679862
 C        -3.197976        -1.740655         1.240672
 C        -2.461974        -2.037147         2.418554
 O        -1.017554        -2.538424         2.160507
 C        -1.157812        -1.290425         2.858589
 C        -0.689720        -0.045532         2.083842
 H        -1.011886         0.242490        -0.904760
 H        -3.289696         1.087776         2.449250
 H        -3.564461         1.725899         0.763540
 H        -3.164121        -0.303506        -0.408796
 H        -4.394090        -1.843270         1.611556
 H        -3.256433        -2.522320         0.438564
 H        -2.854927        -2.595405         3.309327
 H        -0.940342        -1.242092         3.939075
 H        -0.345876         0.694662         2.877374
 H         0.276684        -0.313132         1.541043
