19
Iteration:  4393
 O        -1.224602         1.209215        -0.250034
 C        -1.586723         0.424909         0.873540
 C        -2.863346         0.902439         1.442982
 C        -2.830544        -0.416512         0.557993
 C        -3.043611        -1.809777         1.187545
 C        -2.429813        -1.919681         2.505191
 O        -1.252987        -2.723231         2.474087
 C        -1.111529        -1.279891         2.826204
 C        -0.560201        -0.166223         1.878756
 H        -1.094224         2.158950         0.064014
 H        -3.226248         0.490416         2.415658
 H        -3.290884         1.842598         1.178483
 H        -3.345230        -0.123914        -0.335558
 H        -4.119165        -2.022146         1.153202
 H        -2.501722        -2.567745         0.548239
 H        -3.046926        -2.193705         3.434226
 H        -1.307193        -1.150265         3.957052
 H        -0.110037         0.698770         2.302337
 H         0.188509        -0.644106         1.250875
