19
Iteration:  1556
 O        -0.940729         1.104678        -0.059958
 C        -1.673327         0.407415         0.893748
 C        -3.072209         0.896963         1.131257
 C        -2.835369        -0.564676         0.495432
 C        -3.190283        -1.767045         1.315598
 C        -2.399191        -1.956571         2.651127
 O        -1.090709        -2.477507         2.123201
 C        -1.119053        -1.282349         2.882875
 C        -0.701674        -0.081784         2.167801
 H        -0.883684         0.568027        -0.861665
 H        -3.351277         0.965571         2.162407
 H        -3.622927         1.516438         0.406300
 H        -3.283638        -0.518577        -0.497383
 H        -4.214567        -1.436185         1.698045
 H        -3.144047        -2.669997         0.675549
 H        -2.902991        -2.457452         3.400493
 H        -0.571898        -1.333493         3.863348
 H        -0.553114         0.849294         2.796319
 H         0.329715        -0.243143         1.712485
