19
Iteration:  1039
 O        -1.155621         1.064352        -0.229323
 C        -1.663399         0.436880         0.897487
 C        -3.048930         0.724658         1.464426
 C        -2.913822        -0.372573         0.487782
 C        -2.850443        -1.803121         0.996304
 C        -2.412151        -1.875232         2.528719
 O        -1.183987        -2.612894         2.686555
 C        -1.160446        -1.095719         2.854983
 C        -0.590822        -0.235988         1.829228
 H        -1.129206         2.028756        -0.070045
 H        -3.174878         0.695473         2.507673
 H        -3.690272         1.537620         1.097551
 H        -3.150974        -0.112295        -0.558935
 H        -3.836556        -2.243083         0.986650
 H        -2.289901        -2.475371         0.299814
 H        -3.259738        -2.055335         3.217921
 H        -0.999361        -0.732153         3.962388
 H        -0.059244         0.562203         2.252419
 H         0.099758        -0.688957         1.113238
