19
Iteration:  1963
 O        -1.023266         0.976205        -0.234276
 C        -1.706413         0.470246         0.893897
 C        -2.925863         1.057145         1.399550
 C        -2.876251        -0.337167         0.686166
 C        -3.237754        -1.729015         1.261956
 C        -2.371512        -2.104629         2.381317
 O        -1.066505        -2.629829         2.272697
 C        -1.162583        -1.335516         2.850545
 C        -0.640862        -0.008978         2.057528
 H        -0.792568         0.215671        -0.854305
 H        -3.121811         0.999976         2.512652
 H        -3.496322         1.747323         0.711801
 H        -3.193936        -0.290445        -0.336380
 H        -4.306635        -1.822922         1.631420
 H        -3.170732        -2.448221         0.489277
 H        -2.914792        -2.387220         3.237295
 H        -0.980754        -1.194074         3.924678
 H        -0.538607         0.737514         2.773129
 H         0.411146        -0.151332         1.742306
