19
Iteration:  1425
 O        -0.923317         0.878239        -0.157756
 C        -1.660908         0.336483         0.966315
 C        -3.113982         0.840736         1.046981
 C        -2.696994        -0.502257         0.525327
 C        -3.305467        -1.614152         1.489210
 C        -2.322239        -2.110980         2.544057
 O        -1.065523        -2.377681         1.964993
 C        -1.075224        -1.266125         2.860816
 C        -0.905280         0.070328         2.269261
 H        -0.141461         1.186713         0.289991
 H        -3.560822         1.031704         2.066430
 H        -3.515806         1.642087         0.506218
 H        -2.567525        -0.713950        -0.553782
 H        -4.181461        -1.288415         2.007334
 H        -3.656181        -2.583906         1.063232
 H        -2.779774        -2.714095         3.261075
 H        -0.396789        -1.412471         3.764099
 H        -1.215485         0.801351         3.059376
 H         0.201124         0.084859         1.999827
