19
Iteration:  1276
 O        -0.872673         0.993882        -0.092812
 C        -1.643359         0.353644         0.895325
 C        -3.098114         0.927871         1.011618
 C        -2.944785        -0.499782         0.548074
 C        -3.316554        -1.719250         1.390261
 C        -2.296204        -2.057331         2.470591
 O        -0.882879        -2.551231         2.254863
 C        -1.157444        -1.255829         2.908486
 C        -0.826436         0.024021         2.097151
 H        -1.032577         1.925863        -0.148916
 H        -3.464746         0.987067         2.057842
 H        -3.389832         1.635759         0.263441
 H        -3.053691        -0.643014        -0.545147
 H        -4.217133        -1.698004         2.091045
 H        -3.669326        -2.567004         0.815993
 H        -2.647798        -2.496608         3.460225
 H        -0.993109        -1.342799         3.932187
 H        -0.807474         0.893104         2.765732
 H         0.175024         0.028576         1.672902
