19
Iteration:  4672
 O        -1.029107         0.934576        -0.188452
 C        -1.636572         0.339075         1.000201
 C        -3.069644         0.983260         1.229327
 C        -2.865077        -0.378443         0.586428
 C        -3.240049        -1.648153         1.317832
 C        -2.321626        -2.075677         2.471816
 O        -0.976499        -2.528557         2.160211
 C        -1.130481        -1.322013         2.833009
 C        -0.730123        -0.073453         2.130282
 H        -1.057385         1.872301         0.129898
 H        -3.468609         0.951680         2.263336
 H        -3.418840         1.874078         0.630224
 H        -2.927824        -0.416774        -0.532962
 H        -4.184955        -1.382262         1.848715
 H        -3.410646        -2.550930         0.755198
 H        -2.808025        -2.623299         3.256174
 H        -1.054816        -1.370275         3.931322
 H        -0.348953         0.771012         2.656650
 H         0.100991        -0.431871         1.499412
