19
Iteration:  2918charge 0 multiplicity 1
 O        -1.085161         1.048139        -0.116129
 C        -1.628826         0.398747         0.998225
 C        -2.991356         0.875158         1.211371
 C        -2.701401        -0.524519         0.578590
 C        -3.374592        -1.639398         1.446057
 C        -2.406458        -2.003582         2.585219
 O        -1.139390        -2.476377         1.939423
 C        -1.099455        -1.363898         2.814503
 C        -0.647865        -0.024398         2.108138
 H        -0.151656         0.716845        -0.275846
 H        -3.220375         0.966348         2.326909
 H        -3.067488         1.741656         0.621783
 H        -2.925685        -0.738867        -0.470007
 H        -4.274735        -1.204883         1.919316
 H        -3.606435        -2.551168         0.883293
 H        -2.862539        -2.715365         3.339507
 H        -0.592484        -1.275625         3.809045
 H        -0.449344         0.691088         2.933112
 H         0.335697        -0.298347         1.643542
