19
Iteration:  3728charge 0 multiplicity 1
 O        -1.108748         1.231996        -0.155389
 C        -1.590037         0.348204         0.973067
 C        -3.018575         0.820923         1.379100
 C        -2.763298        -0.516738         0.590816
 C        -3.232936        -1.748362         1.224898
 C        -2.427243        -1.944089         2.437194
 O        -1.140690        -2.586200         2.401900
 C        -1.182984        -1.188273         2.786125
 C        -0.545007        -0.229562         1.835804
 H        -1.026715         2.062360         0.318322
 H        -3.285704         0.895003         2.439907
 H        -3.362587         1.723464         0.787611
 H        -2.979670        -0.427630        -0.456886
 H        -4.246502        -1.742988         1.589240
 H        -3.014397        -2.603170         0.490784
 H        -2.921671        -2.260497         3.361262
 H        -1.020805        -1.118779         3.889980
 H         0.110289         0.546980         2.459146
 H         0.256794        -0.820926         1.271393
