19
Iteration:   903charge 0 multiplicity 1
 O        -0.917551         0.998153        -0.197594
 C        -1.633011         0.306780         0.889253
 C        -3.022353         0.807568         1.232997
 C        -2.805089        -0.507735         0.515900
 C        -3.243447        -1.797487         1.354832
 C        -2.333389        -2.003133         2.521719
 O        -1.026630        -2.488860         2.191419
 C        -1.236012        -1.162638         2.961926
 C        -0.773066         0.064284         2.089616
 H        -1.390053         1.816931        -0.362223
 H        -3.273652         0.973338         2.290169
 H        -3.527628         1.565994         0.538783
 H        -3.117540        -0.554238        -0.543864
 H        -4.305365        -1.572315         1.710475
 H        -3.365507        -2.702809         0.760570
 H        -2.759823        -2.647340         3.292973
 H        -0.678947        -1.127563         3.872954
 H        -0.743182         0.937954         2.713895
 H         0.236712        -0.241918         1.845578
