19
Iteration:  2318
 O        -0.831619         0.690397        -0.169544
 C        -1.632467         0.420858         1.001470
 C        -3.028555         1.055071         1.252119
 C        -2.926697        -0.320430         0.762743
 C        -3.299677        -1.608658         1.475235
 C        -2.311663        -2.126830         2.478049
 O        -0.989101        -2.409970         1.902449
 C        -1.148097        -1.424249         2.763664
 C        -0.878381         0.037593         2.156947
 H        -1.497843         0.824166        -0.891759
 H        -3.248749         1.495451         2.203175
 H        -3.207818         1.916601         0.579791
 H        -3.017438        -0.511218        -0.302247
 H        -4.284980        -1.443508         2.019399
 H        -3.429869        -2.442604         0.711452
 H        -2.710653        -2.912177         3.257429
 H        -0.562798        -1.514494         3.665643
 H        -1.007558         0.646382         3.041169
 H         0.217991         0.141053         2.116309
