19
Iteration:  1589
 O        -1.080810         1.109599        -0.118649
 C        -1.665840         0.392346         0.919349
 C        -3.064680         0.940851         1.154022
 C        -2.804157        -0.461437         0.518884
 C        -3.219413        -1.675370         1.291418
 C        -2.392186        -2.127467         2.508286
 O        -0.999702        -2.616865         2.335972
 C        -1.196791        -1.221505         2.852403
 C        -0.614287        -0.081452         2.007946
 H        -0.086339         1.028168        -0.041584
 H        -3.483393         0.872326         2.092063
 H        -3.531983         1.663405         0.429493
 H        -3.022959        -0.526191        -0.536137
 H        -4.160464        -1.388076         1.850770
 H        -3.705305        -2.460450         0.777077
 H        -2.819738        -2.509639         3.335034
 H        -0.922952        -1.073689         3.925484
 H        -0.534454         0.714160         2.791036
 H         0.445961        -0.304154         1.689272
