19
Iteration:  2874charge 0 multiplicity 1
 O        -0.908556         1.095057        -0.071246
 C        -1.716528         0.383199         0.890599
 C        -2.949048         1.062029         1.238042
 C        -2.989001        -0.395477         0.573761
 C        -3.271259        -1.662282         1.406511
 C        -2.301486        -2.056557         2.556309
 O        -0.999931        -2.574404         2.151375
 C        -1.121565        -1.415771         2.813458
 C        -0.800602        -0.131445         2.010000
 H        -0.478867         0.387845        -0.664192
 H        -3.387379         1.123622         2.272800
 H        -3.420829         1.806603         0.563473
 H        -3.214838        -0.308872        -0.461344
 H        -4.200680        -1.479109         1.933142
 H        -3.410212        -2.578565         0.826394
 H        -2.863570        -2.620403         3.221543
 H        -0.750022        -1.480859         3.896224
 H        -0.675043         0.784661         2.631026
 H         0.138685        -0.273528         1.454584
