19
Iteration:  2680charge 0 multiplicity 1
 O        -1.050869         1.097163        -0.198615
 C        -1.615745         0.406998         0.872632
 C        -2.877120         0.870271         1.539303
 C        -2.965868        -0.365852         0.596999
 C        -3.194186        -1.770169         1.173971
 C        -2.415111        -2.018234         2.505791
 O        -1.078000        -2.544483         2.338089
 C        -1.244264        -1.176707         2.833953
 C        -0.661639        -0.177713         1.874665
 H        -0.406491         0.362030        -0.424146
 H        -2.885056         0.619606         2.559202
 H        -3.386288         1.837113         1.404140
 H        -3.083632        -0.064595        -0.416524
 H        -4.290794        -1.766938         1.269229
 H        -2.779124        -2.437217         0.463956
 H        -3.055426        -2.535874         3.234190
 H        -1.009345        -0.974663         3.848389
 H        -0.188820         0.606547         2.518350
 H         0.228487        -0.613031         1.363548
