19
Iteration:  3017
 O        -1.031050         0.826542        -0.132634
 C        -1.656306         0.328403         1.010100
 C        -2.948192         1.031221         1.249549
 C        -2.867135        -0.352517         0.752385
 C        -3.315673        -1.701922         1.372382
 C        -2.339529        -2.053804         2.433515
 O        -1.019847        -2.425564         1.951662
 C        -1.152789        -1.339074         2.825856
 C        -0.748424         0.024084         2.167229
 H        -0.484858         0.115373        -0.586482
 H        -3.043287         1.203852         2.319239
 H        -3.129480         1.865994         0.551638
 H        -3.073100        -0.391182        -0.355755
 H        -4.369802        -1.414485         1.699068
 H        -3.345658        -2.575904         0.670173
 H        -2.638956        -2.858165         3.106740
 H        -0.698998        -1.438376         3.827601
 H        -0.990047         0.881754         2.819716
 H         0.324855         0.052669         1.925272
