19
Iteration:  3383charge 0 multiplicity 1
 O        -0.984233         0.857008        -0.087899
 C        -1.685532         0.406183         1.064401
 C        -3.050993         0.909201         1.116067
 C        -2.831615        -0.464892         0.528434
 C        -3.379604        -1.595584         1.449362
 C        -2.342268        -2.052541         2.566698
 O        -1.014166        -2.428712         1.918717
 C        -1.065054        -1.327115         2.777822
 C        -0.719382        -0.035446         2.176680
 H        -0.248811         1.364555         0.229972
 H        -3.347726         1.097495         2.148209
 H        -3.366604         1.721438         0.484157
 H        -2.698394        -0.809243        -0.445026
 H        -4.154627        -1.156199         2.077676
 H        -3.803341        -2.582394         0.919753
 H        -2.713635        -2.831345         3.316602
 H        -0.749385        -1.378062         3.840672
 H        -0.935825         0.758160         2.967735
 H         0.288605        -0.025603         1.817890
