19
Iteration:  2979charge 0 multiplicity 1
 O        -0.896614         0.867539        -0.177693
 C        -1.600370         0.419051         0.898371
 C        -3.076530         1.100391         1.265119
 C        -2.983197        -0.340281         0.741553
 C        -3.275171        -1.598783         1.370735
 C        -2.309328        -2.167303         2.438589
 O        -0.927908        -2.575609         2.071735
 C        -1.103595        -1.317798         2.882585
 C        -0.832500        -0.032487         2.113251
 H        -0.926017         0.246927        -0.945528
 H        -3.328416         1.357780         2.281458
 H        -3.491664         1.913454         0.603427
 H        -3.266734        -0.212561        -0.263390
 H        -4.169760        -1.564585         2.011273
 H        -3.560244        -2.314514         0.612572
 H        -2.872936        -2.979458         2.948845
 H        -0.959818        -1.483581         3.945137
 H        -0.885533         0.664487         2.950620
 H         0.237363         0.038362         1.843342
