19
Iteration:  3040
 O        -0.848719         0.892549        -0.152203
 C        -1.651753         0.409697         1.003526
 C        -3.000889         0.908715         1.253680
 C        -2.970065        -0.410608         0.631866
 C        -3.398757        -1.695508         1.484626
 C        -2.308852        -2.041277         2.491298
 O        -1.083932        -2.439005         1.894940
 C        -1.115283        -1.305096         2.807635
 C        -0.735521         0.038380         2.173923
 H         0.056948         0.539215        -0.215114
 H        -3.335044         0.768726         2.237003
 H        -3.439239         1.754646         0.637587
 H        -3.286621        -0.431880        -0.450061
 H        -4.370595        -1.396162         1.934206
 H        -3.535016        -2.659331         0.907275
 H        -2.563858        -2.806361         3.240853
 H        -0.615704        -1.507194         3.780658
 H        -0.685604         0.898733         2.882200
 H         0.272462        -0.170895         1.810104
