19
Iteration:  3492charge 0 multiplicity 1
 O        -0.934750         0.903647        -0.139475
 C        -1.582116         0.376370         0.881225
 C        -2.968138         0.933109         1.410349
 C        -2.844916        -0.412010         0.669041
 C        -3.262435        -1.768736         1.312159
 C        -2.445982        -2.093936         2.468854
 O        -1.017306        -2.422116         2.122893
 C        -1.255794        -1.246433         2.825100
 C        -0.711273        -0.100640         1.997575
 H        -1.267034         1.802095        -0.378742
 H        -2.967161         1.112468         2.473962
 H        -3.374587         1.766811         0.896227
 H        -3.492698        -0.240674        -0.236277
 H        -4.316904        -1.810854         1.262667
 H        -3.191385        -2.424711         0.488539
 H        -2.640691        -2.399228         3.483218
 H        -1.004068        -1.256227         3.925117
 H        -0.598127         0.858491         2.615055
 H         0.342071        -0.282163         1.777870
