19
Iteration:  4864charge 0 multiplicity 1
 O        -1.052677         0.914477        -0.219710
 C        -1.635617         0.441128         1.021732
 C        -3.010730         0.918248         1.256904
 C        -2.756229        -0.490185         0.628592
 C        -3.312283        -1.609058         1.435489
 C        -2.348521        -2.169061         2.453289
 O        -0.989178        -2.418343         2.008833
 C        -1.202583        -1.317764         2.937407
 C        -0.675942        -0.060031         2.087124
 H        -0.878921         1.887421        -0.115109
 H        -3.461698         0.811867         2.194966
 H        -3.433583         1.758880         0.645981
 H        -2.969971        -0.426700        -0.485382
 H        -4.329215        -1.139298         1.752112
 H        -3.558496        -2.523045         0.795300
 H        -2.811757        -2.837682         3.201955
 H        -0.871748        -1.385511         3.943797
 H        -0.564368         0.826901         2.704394
 H         0.260402        -0.383109         1.700423
