19
Iteration:  3235charge 0 multiplicity 1
 O        -0.808160         1.024482        -0.028065
 C        -1.674336         0.414467         0.895270
 C        -2.986105         0.974838         1.062015
 C        -2.876571        -0.458512         0.566994
 C        -3.325439        -1.643575         1.614202
 C        -2.324469        -2.160952         2.618334
 O        -1.102902        -2.480552         1.919244
 C        -1.040691        -1.431142         2.733638
 C        -0.848916         0.059509         2.189098
 H        -1.068771         0.757233        -0.910578
 H        -3.404514         0.880489         2.126864
 H        -3.321253         1.825530         0.462542
 H        -3.317185        -0.692358        -0.427258
 H        -4.228569        -1.283714         2.175145
 H        -3.654612        -2.477514         1.097361
 H        -2.804262        -2.852138         3.299198
 H        -0.436296        -1.629315         3.710158
 H        -1.124887         0.762596         3.005977
 H         0.269037         0.047433         1.859035
