19
Iteration:  1766
 O        -1.164573         1.185157        -0.221405
 C        -1.573860         0.341762         0.874380
 C        -3.032445         0.854296         1.401989
 C        -2.776525        -0.374012         0.544823
 C        -3.148685        -1.739040         1.107620
 C        -2.397487        -1.941296         2.569295
 O        -1.207612        -2.689815         2.512930
 C        -1.147588        -1.207654         2.795658
 C        -0.533938        -0.223704         1.897237
 H        -0.678372         1.961518         0.233323
 H        -3.137683         0.765655         2.589694
 H        -3.453138         1.646969         0.761021
 H        -3.189742        -0.344430        -0.514382
 H        -4.250233        -1.754023         1.181313
 H        -2.676868        -2.530181         0.558302
 H        -2.992536        -2.048480         3.440484
 H        -1.022514        -1.021521         3.878625
 H        -0.193950         0.589504         2.544318
 H         0.270414        -0.627873         1.192516
