19
Iteration:  1089charge 0 multiplicity 1
 O        -1.067078         1.260234        -0.094876
 C        -1.612415         0.418217         0.849932
 C        -3.042278         0.752110         1.380608
 C        -2.817789        -0.523809         0.498915
 C        -3.108746        -1.917778         1.114223
 C        -2.416004        -1.971911         2.513493
 O        -1.059084        -2.536829         2.749360
 C        -1.278874        -1.083885         2.762955
 C        -0.597626        -0.206686         1.666992
 H        -0.647035         1.943891         0.418894
 H        -3.493987         0.948053         2.403607
 H        -3.449188         1.562027         0.814515
 H        -3.390810        -0.456871        -0.410833
 H        -4.203988        -2.219150         1.179560
 H        -2.730639        -2.613758         0.372895
 H        -3.055814        -2.152933         3.387074
 H        -1.221603        -0.723973         3.713803
 H         0.192142         0.557404         2.072885
 H        -0.092562        -0.919028         0.964126
