19
Iteration:  1689charge 0 multiplicity 1
 O        -1.009984         1.160601        -0.137074
 C        -1.639027         0.390709         0.838351
 C        -2.931195         0.925112         1.360280
 C        -2.812960        -0.362649         0.530591
 C        -3.172776        -1.765307         1.184417
 C        -2.389210        -2.040622         2.491993
 O        -1.046661        -2.643524         2.476987
 C        -1.273692        -1.179296         2.901240
 C        -0.695743        -0.172002         1.897298
 H        -1.492136         1.155360        -0.975503
 H        -3.177998         0.756838         2.464147
 H        -3.522356         1.670316         0.903407
 H        -3.246621        -0.284818        -0.471435
 H        -4.229507        -1.913588         1.453159
 H        -2.930967        -2.584786         0.526413
 H        -2.967143        -2.359641         3.292832
 H        -0.875142        -1.118374         3.915383
 H        -0.409459         0.706692         2.459897
 H         0.141408        -0.755779         1.371907
