19
Iteration:  2591charge 0 multiplicity 1
 O        -1.025462         1.217964        -0.099148
 C        -1.579150         0.359672         0.926615
 C        -3.000938         0.802482         1.397095
 C        -2.916716        -0.454147         0.472102
 C        -3.312997        -1.773133         1.295047
 C        -2.475006        -1.944787         2.580184
 O        -1.122318        -2.558611         2.248094
 C        -1.107085        -1.258920         2.752748
 C        -0.543995        -0.123361         1.977975
 H        -0.349685         0.780558        -0.706914
 H        -3.113304         0.562069         2.487613
 H        -3.155399         1.689312         0.853319
 H        -3.074964        -0.316155        -0.633614
 H        -4.382607        -1.631757         1.592828
 H        -3.439822        -2.723265         0.826246
 H        -2.797616        -2.325188         3.554814
 H        -0.806998        -1.136480         3.838150
 H        -0.150363         0.780062         2.536061
 H         0.261083        -0.423461         1.268432
