19
Iteration:  2047charge 0 multiplicity 1
 O        -0.936910         0.993825        -0.097057
 C        -1.617982         0.418303         0.964063
 C        -3.046871         0.921821         1.142872
 C        -2.896468        -0.465732         0.577564
 C        -3.327419        -1.549855         1.504631
 C        -2.317015        -2.073982         2.504969
 O        -1.083922        -2.636552         2.071100
 C        -1.066407        -1.283675         2.824918
 C        -0.724084        -0.112717         2.057274
 H        -1.078729         1.927962        -0.195392
 H        -3.347186         1.112847         2.174483
 H        -3.378768         1.750853         0.505172
 H        -2.806332        -0.387248        -0.488290
 H        -4.176124        -1.179798         2.113531
 H        -3.721827        -2.409035         0.895958
 H        -2.954120        -2.652346         3.216145
 H        -0.516415        -1.512609         3.723866
 H        -0.580600         0.773836         2.797205
 H         0.254579        -0.309352         1.570897
