19
Iteration:  2275
 O        -0.863114         0.876850        -0.119909
 C        -1.676983         0.381588         1.029529
 C        -3.008313         1.066318         1.135866
 C        -3.019120        -0.382312         0.713258
 C        -3.406971        -1.602431         1.538036
 C        -2.317415        -2.085825         2.439453
 O        -0.999533        -2.532402         1.948579
 C        -1.002152        -1.347166         2.679843
 C        -0.788942        -0.030411         2.208751
 H        -0.356152         0.202171        -0.578280
 H        -3.244142         1.224649         2.205173
 H        -3.186279         1.906167         0.434598
 H        -3.105717        -0.628159        -0.329667
 H        -4.268356        -1.384839         2.239217
 H        -3.796694        -2.367517         0.780924
 H        -2.798502        -2.902990         3.131321
 H        -0.648485        -1.439334         3.709977
 H        -0.988686         0.677173         3.021337
 H         0.241615         0.296416         1.999323
