19
Iteration:  4351
 O        -0.993519         1.069354        -0.121397
 C        -1.726467         0.471055         0.883840
 C        -2.988952         0.930668         1.500542
 C        -2.941638        -0.332401         0.539672
 C        -3.123656        -1.784893         1.178437
 C        -2.334718        -2.019640         2.448816
 O        -1.078699        -2.642489         2.492489
 C        -1.219104        -1.173704         2.817027
 C        -0.622515        -0.255853         1.745336
 H        -0.929270         2.007782         0.220746
 H        -3.270568         0.928621         2.585313
 H        -3.518705         1.659994         0.941158
 H        -3.408974        -0.244276        -0.469682
 H        -4.179170        -2.213970         1.283066
 H        -2.747537        -2.463589         0.389788
 H        -2.961476        -2.059779         3.340032
 H        -0.928508        -0.994928         3.946492
 H         0.045421         0.481701         2.237635
 H        -0.058142        -0.865503         1.049164
