19
Iteration:  2595
 O        -1.003040         1.230308        -0.107800
 C        -1.626563         0.371771         0.887612
 C        -2.986579         0.808847         1.399032
 C        -2.886643        -0.425052         0.507201
 C        -3.315965        -1.770592         1.323705
 C        -2.454369        -1.939402         2.542711
 O        -1.127225        -2.582192         2.262730
 C        -1.080595        -1.274714         2.775797
 C        -0.563357        -0.115416         1.965705
 H        -0.519211         0.704698        -0.733878
 H        -3.133002         0.603904         2.426149
 H        -3.319845         1.670973         0.786332
 H        -3.133172        -0.357402        -0.517741
 H        -4.362847        -1.718082         1.552572
 H        -3.278950        -2.745839         0.741196
 H        -2.999765        -2.329819         3.543978
 H        -0.874562        -1.189931         3.803020
 H        -0.233749         0.757385         2.595400
 H         0.307448        -0.529452         1.324973
