19
Iteration:  2688
 O        -1.024752         1.153396        -0.195730
 C        -1.589451         0.419336         0.868608
 C        -2.915550         0.789848         1.500463
 C        -2.960848        -0.385335         0.611109
 C        -3.227369        -1.754378         1.147862
 C        -2.451514        -1.977395         2.537601
 O        -1.116677        -2.515366         2.346459
 C        -1.183987        -1.241113         2.814163
 C        -0.646197        -0.165574         1.893801
 H        -0.279255         0.600792        -0.624793
 H        -2.662465         0.680115         2.620431
 H        -3.457767         1.699599         1.305974
 H        -3.190748        -0.024878        -0.466691
 H        -4.325249        -2.061333         1.340193
 H        -3.023055        -2.641103         0.439518
 H        -2.826145        -2.368377         3.424873
 H        -0.831794        -1.143812         3.910012
 H        -0.224058         0.667078         2.441203
 H         0.175115        -0.738419         1.533455
