19
Iteration:  4119charge 0 multiplicity 1
 O        -0.848053         0.941446        -0.223410
 C        -1.688708         0.287945         0.901543
 C        -2.998639         1.043101         1.253090
 C        -2.945672        -0.435883         0.596686
 C        -3.313988        -1.641874         1.470195
 C        -2.290915        -2.263135         2.442810
 O        -0.953740        -2.447661         2.080232
 C        -1.195102        -1.276160         2.871696
 C        -0.819546        -0.032161         2.163806
 H        -0.770947         1.871890         0.141546
 H        -3.227545         1.240344         2.319890
 H        -3.345711         1.791984         0.525941
 H        -3.369017        -0.485670        -0.467908
 H        -4.218549        -1.317656         2.051288
 H        -3.645784        -2.465329         0.832985
 H        -2.707474        -3.104585         3.004750
 H        -0.895871        -1.157450         3.921250
 H        -0.632681         0.905320         2.786519
 H         0.085536        -0.277138         1.585971
