19
Iteration:  1469charge 0 multiplicity 1
 O        -0.878326         0.759888        -0.098828
 C        -1.757502         0.352140         0.953754
 C        -3.015581         1.143326         1.082512
 C        -2.875577        -0.494376         0.638236
 C        -3.268738        -1.746454         1.395916
 C        -2.285962        -2.128653         2.441415
 O        -0.935757        -2.422590         2.083310
 C        -1.130419        -1.231040         2.899829
 C        -0.887673         0.027869         2.159505
 H        -0.885890         1.716576        -0.140940
 H        -3.450950         1.323882         2.126595
 H        -3.259564         1.830459         0.298804
 H        -3.087266        -0.627071        -0.430409
 H        -4.301525        -1.738899         1.774070
 H        -3.430263        -2.530408         0.628757
 H        -2.661099        -2.857898         3.105666
 H        -0.846601        -1.444968         3.959295
 H        -1.214455         0.790799         2.940842
 H         0.233857         0.151693         1.946244
