19
Iteration:   742
 O        -0.843548         0.853083        -0.124707
 C        -1.738332         0.522359         0.956335
 C        -3.136354         0.961793         0.876327
 C        -2.844521        -0.506928         0.609342
 C        -3.297355        -1.671270         1.538673
 C        -2.233404        -2.187304         2.493387
 O        -0.861901        -2.443996         2.102224
 C        -1.111485        -1.322968         2.823647
 C        -1.053203         0.117161         2.217378
 H        -0.060287         0.286437         0.121320
 H        -3.596854         1.219914         1.854278
 H        -3.478630         1.575380         0.085689
 H        -2.942401        -0.773126        -0.438186
 H        -4.036571        -1.221403         2.201768
 H        -3.800947        -2.531952         1.042308
 H        -2.609641        -2.977137         3.149258
 H        -0.570010        -1.260133         3.824165
 H        -1.233471         0.795283         3.137772
 H         0.002885         0.480141         2.009355
