19
Iteration:    87charge 0 multiplicity 1
 O        -0.754702         0.868212        -0.010783
 C        -1.716931         0.338574         0.935134
 C        -3.227167         0.826723         0.900933
 C        -2.746613        -0.630094         0.567167
 C        -3.205983        -1.832700         1.364259
 C        -2.330294        -2.009713         2.638238
 O        -0.995661        -2.344932         2.129175
 C        -1.052163        -1.172710         2.842471
 C        -1.024544         0.262155         2.216885
 H        -1.086407         0.721539        -0.940391
 H        -3.505489         1.002506         1.921751
 H        -3.534372         1.392641         0.103586
 H        -2.624848        -0.810469        -0.544085
 H        -4.282867        -1.640910         1.613197
 H        -3.116024        -2.774770         0.781560
 H        -2.577571        -2.634078         3.487474
 H        -0.576657        -1.313420         3.805773
 H        -1.583977         0.795668         2.961016
 H        -0.046969         0.598404         2.157515
