19
Iteration:  1011charge 0 multiplicity 1
 O        -1.064373         1.058459        -0.209126
 C        -1.652628         0.381182         0.893986
 C        -3.005847         0.782666         1.518793
 C        -2.935494        -0.455142         0.578007
 C        -2.978775        -1.949547         1.000896
 C        -2.478783        -1.931505         2.499767
 O        -1.074503        -2.532164         2.635089
 C        -1.259744        -1.067585         2.769070
 C        -0.611934        -0.112118         1.818291
 H        -0.662589         1.826642         0.201146
 H        -3.157807         0.845976         2.631287
 H        -3.504770         1.643766         0.942766
 H        -3.269150        -0.168657        -0.430278
 H        -4.050394        -2.306908         0.856674
 H        -2.329190        -2.510101         0.323659
 H        -3.193109        -2.041088         3.351077
 H        -1.246978        -0.685609         3.737042
 H        -0.079701         0.823302         2.289737
 H         0.191561        -0.537911         1.165004
