19
Iteration:  4163charge 0 multiplicity 1
 O        -1.078825         0.861228        -0.142494
 C        -1.674230         0.408651         1.026823
 C        -3.038548         0.944526         1.227786
 C        -2.844739        -0.422142         0.591607
 C        -3.250330        -1.693760         1.314308
 C        -2.342010        -2.045464         2.552361
 O        -1.088962        -2.540218         2.053056
 C        -1.058720        -1.284423         2.817090
 C        -0.662546         0.035568         2.136604
 H        -0.338038         1.468578         0.164413
 H        -3.474847         0.980008         2.264275
 H        -3.147455         1.758614         0.569590
 H        -2.935332        -0.485956        -0.535576
 H        -4.347525        -1.619466         1.537118
 H        -3.319266        -2.431225         0.518264
 H        -2.873702        -2.314414         3.473704
 H        -0.548840        -1.572360         3.745761
 H        -0.799921         0.902081         2.853816
 H         0.321104        -0.053193         1.654009
