19
Iteration:  4025
 O        -0.961963         0.962717        -0.189880
 C        -1.637109         0.350488         0.913585
 C        -2.954870         0.963037         1.151026
 C        -2.926929        -0.471095         0.584990
 C        -3.393228        -1.616858         1.558452
 C        -2.237571        -2.217356         2.441838
 O        -1.004046        -2.433453         1.998598
 C        -1.220173        -1.278685         2.857204
 C        -0.774085        -0.039124         2.194128
 H        -0.237749         1.430069         0.259424
 H        -3.101045         1.107877         2.199929
 H        -3.205687         1.698343         0.459981
 H        -3.091822        -0.403757        -0.497414
 H        -4.204538        -1.344911         2.207750
 H        -3.630334        -2.413972         0.838137
 H        -2.426162        -2.969727         3.226984
 H        -0.902873        -1.370252         3.880863
 H        -0.870563         0.687585         2.950822
 H         0.255268        -0.084890         1.922673
