19
Iteration:  3472charge 0 multiplicity 1
 O        -0.921751         0.827480        -0.221756
 C        -1.637805         0.388526         0.996726
 C        -2.978882         0.976418         1.386522
 C        -2.922437        -0.387792         0.646456
 C        -3.238357        -1.748617         1.302138
 C        -2.374764        -2.036447         2.427215
 O        -1.089970        -2.492813         2.107826
 C        -1.178142        -1.220054         2.858432
 C        -0.683676         0.016636         2.136207
 H        -1.290477         1.686984        -0.400817
 H        -3.291255         0.820837         2.384750
 H        -3.518035         1.755420         0.880291
 H        -3.022627        -0.281933        -0.519973
 H        -4.272459        -1.890913         1.567695
 H        -3.322703        -2.504165         0.407580
 H        -2.756864        -2.908850         3.039355
 H        -0.700455        -1.213720         3.796799
 H        -0.217231         0.739980         2.887118
 H         0.154250        -0.332504         1.553255
