19
Iteration:  1622
 O        -0.954477         0.992195        -0.171496
 C        -1.637113         0.346602         0.860797
 C        -3.033244         0.951127         1.302038
 C        -2.914819        -0.385129         0.536092
 C        -3.204995        -1.742487         1.247649
 C        -2.355278        -2.088779         2.573838
 O        -0.990158        -2.512300         2.297317
 C        -1.275356        -1.181848         2.923270
 C        -0.688696        -0.126884         1.934381
 H        -0.657451         1.788571         0.300226
 H        -3.329316         0.803841         2.278163
 H        -3.632452         1.790664         0.845590
 H        -3.215724        -0.417068        -0.498130
 H        -4.296591        -1.648336         1.397797
 H        -2.957215        -2.525597         0.588022
 H        -2.906510        -2.563099         3.267258
 H        -0.907229        -1.195374         3.962725
 H        -0.483679         0.646294         2.650294
 H         0.220706        -0.539308         1.474494
