19
Iteration:  1979charge 0 multiplicity 1
 O        -1.089651         0.945993        -0.289198
 C        -1.531201         0.387834         0.984628
 C        -2.938914         0.963242         1.387437
 C        -2.957914        -0.299273         0.643221
 C        -3.298772        -1.677818         1.214667
 C        -2.366244        -2.039232         2.491140
 O        -1.023294        -2.620388         2.240821
 C        -1.156424        -1.293603         2.785506
 C        -0.717439        -0.022464         2.104795
 H        -0.225602         0.440907        -0.447517
 H        -3.015854         0.976123         2.434033
 H        -3.271480         1.899228         0.985774
 H        -3.203803        -0.283800        -0.470967
 H        -4.321722        -1.614632         1.560021
 H        -3.002410        -2.480321         0.448915
 H        -2.873413        -2.711454         3.283713
 H        -0.727351        -1.269632         3.816178
 H        -0.862085         0.788582         2.941244
 H         0.310755        -0.087668         1.699811
