19
Iteration:  2271charge 0 multiplicity 1
 O        -0.900020         0.892879        -0.128398
 C        -1.665036         0.363348         1.021809
 C        -2.981648         1.086756         1.120556
 C        -2.949582        -0.400853         0.711078
 C        -3.417850        -1.597808         1.553614
 C        -2.298645        -2.091181         2.449250
 O        -1.018931        -2.498021         1.932179
 C        -1.050540        -1.389206         2.708066
 C        -0.798560        -0.039081         2.183493
 H        -0.225350         0.205300        -0.455177
 H        -3.354323         1.229775         2.130121
 H        -3.378780         1.886739         0.543177
 H        -3.079949        -0.616596        -0.339810
 H        -4.233170        -1.420488         2.281968
 H        -3.737856        -2.306672         0.837335
 H        -2.636960        -2.799436         3.140224
 H        -0.650068        -1.423741         3.728668
 H        -0.928785         0.598112         3.069724
 H         0.275998         0.238288         2.035480
