19
Iteration:  4914
 O        -0.861180         0.944879        -0.155478
 C        -1.692984         0.391941         0.902872
 C        -3.091766         0.985578         1.258974
 C        -3.001725        -0.359441         0.632985
 C        -3.260118        -1.724575         1.368615
 C        -2.311799        -2.083463         2.540607
 O        -1.053138        -2.546099         2.106873
 C        -1.022936        -1.320121         2.767096
 C        -0.787417        -0.046975         2.103626
 H        -0.788523         1.855252         0.094400
 H        -3.304933         1.082484         2.319640
 H        -3.577652         1.775884         0.644908
 H        -3.217321        -0.352546        -0.412988
 H        -4.299839        -1.680568         1.593778
 H        -3.089791        -2.650680         0.811226
 H        -2.749905        -2.658818         3.368465
 H        -0.431521        -1.211746         3.722114
 H        -0.691816         0.722868         2.908553
 H         0.210569        -0.292183         1.641054
