19
Iteration:  2160charge 0 multiplicity 1
 O        -0.903825         0.763170        -0.188646
 C        -1.638114         0.395268         1.024209
 C        -2.933031         1.103747         1.237123
 C        -2.886889        -0.338824         0.759599
 C        -3.341626        -1.622472         1.441970
 C        -2.316277        -2.194653         2.407935
 O        -1.000120        -2.487771         1.942488
 C        -1.125239        -1.297012         2.766989
 C        -0.838485         0.059209         2.195210
 H        -1.480514         0.414310        -0.869542
 H        -3.237469         1.039051         2.322245
 H        -3.329460         1.808137         0.418803
 H        -3.077850        -0.503119        -0.364405
 H        -4.207933        -1.570975         2.175015
 H        -3.699516        -2.368900         0.741682
 H        -2.551350        -2.734635         3.285234
 H        -0.798529        -1.430770         3.826819
 H        -1.091538         0.667956         3.114119
 H         0.307231         0.101537         2.099578
