19
Iteration:  4583
 O        -1.105597         1.024023        -0.185745
 C        -1.650510         0.445830         1.006557
 C        -3.153763         0.962004         1.203874
 C        -2.870832        -0.365766         0.570655
 C        -3.208423        -1.650701         1.250100
 C        -2.277278        -2.032240         2.446266
 O        -1.083841        -2.651248         2.305133
 C        -1.045282        -1.332269         2.928765
 C        -0.607329        -0.158847         2.027444
 H        -0.478835         1.797934        -0.154664
 H        -3.445372         1.044711         2.312422
 H        -3.337571         1.788761         0.540257
 H        -3.239771        -0.400200        -0.430666
 H        -4.310590        -1.539991         1.379277
 H        -3.133675        -2.440121         0.523890
 H        -2.740693        -2.536169         3.230399
 H        -1.035950        -1.189879         4.022713
 H        -0.425291         0.565477         2.778037
 H         0.339958        -0.386490         1.504401
