19
Iteration:   543charge 0 multiplicity 1
 O        -1.001152         1.026248        -0.180548
 C        -1.676455         0.346661         0.819885
 C        -3.066285         0.882217         1.104590
 C        -2.864931        -0.532169         0.453005
 C        -3.130671        -1.769816         1.350228
 C        -2.264713        -2.131053         2.487143
 O        -0.885996        -2.455908         2.352857
 C        -1.244754        -1.164543         2.960263
 C        -0.924841         0.105361         2.142143
 H        -0.290664         0.445049        -0.458437
 H        -3.260350         0.898540         2.198004
 H        -3.535975         1.641777         0.494346
 H        -3.180777        -0.635851        -0.564813
 H        -4.149405        -1.483608         1.752620
 H        -3.438296        -2.588366         0.652923
 H        -2.714120        -2.658682         3.293055
 H        -0.945870        -1.232870         4.070624
 H        -0.949287         0.988676         2.899879
 H         0.139260        -0.241448         1.914909
