19
Iteration:  4883
 O        -1.057046         0.933531        -0.197428
 C        -1.610514         0.310966         0.958583
 C        -2.927196         0.902431         1.306074
 C        -2.823504        -0.408543         0.562558
 C        -3.330606        -1.654449         1.385155
 C        -2.330095        -2.125669         2.444012
 O        -1.016244        -2.486116         2.079579
 C        -1.182222        -1.257162         2.797900
 C        -0.758229         0.009273         2.171915
 H        -1.173281         1.927774        -0.090985
 H        -3.176584         0.827571         2.315378
 H        -3.222552         1.838584         0.793032
 H        -2.875293        -0.577171        -0.510052
 H        -4.090581        -1.288513         2.053754
 H        -3.578603        -2.559974         0.787024
 H        -2.693231        -2.836540         3.269040
 H        -0.735873        -1.269219         3.799585
 H        -0.591189         0.772869         2.958539
 H         0.260650        -0.229837         1.802242
