19
Iteration:  2779
 O        -0.991541         1.168686        -0.072208
 C        -1.640896         0.399090         0.909578
 C        -2.946575         0.939179         1.359519
 C        -2.896933        -0.433917         0.543353
 C        -3.285001        -1.757117         1.342763
 C        -2.447962        -2.006710         2.546798
 O        -1.019132        -2.579079         2.284977
 C        -1.141653        -1.299468         2.810598
 C        -0.700573        -0.171921         1.857275
 H        -0.272471         0.595074        -0.435197
 H        -3.178292         1.171221         2.397481
 H        -3.301432         1.694477         0.696202
 H        -3.117089        -0.382322        -0.523484
 H        -4.471712        -1.641260         1.519886
 H        -3.221664        -2.543998         0.557722
 H        -3.021123        -2.564117         3.334865
 H        -0.827085        -1.149268         3.818545
 H        -0.432515         0.747525         2.438447
 H         0.131459        -0.295347         1.179309
