19
Iteration:  3774
 O        -0.902695         1.091018        -0.221956
 C        -1.668500         0.393394         0.892259
 C        -3.036257         0.984329         1.419590
 C        -3.019752        -0.324248         0.634260
 C        -3.088672        -1.785703         1.189044
 C        -2.385066        -2.009822         2.513400
 O        -1.104137        -2.689512         2.359691
 C        -1.127431        -1.287206         2.855376
 C        -0.686792        -0.146418         1.897041
 H        -1.130496         2.049067        -0.246889
 H        -3.430427         0.983770         2.406244
 H        -3.613027         1.577918         0.824343
 H        -3.435933        -0.256409        -0.436432
 H        -4.118183        -2.010449         1.397302
 H        -2.637094        -2.538754         0.490679
 H        -2.943112        -2.317679         3.382984
 H        -0.952318        -1.071511         3.910764
 H        -0.409439         0.658913         2.682000
 H         0.335621        -0.306341         1.393386
