19
Iteration:  1573charge 0 multiplicity 1
 O        -1.025908         1.157648        -0.102208
 C        -1.623051         0.395545         0.971309
 C        -3.053495         0.856353         1.110572
 C        -2.789857        -0.485854         0.528897
 C        -3.289340        -1.701674         1.400219
 C        -2.323264        -2.036227         2.537028
 O        -1.077054        -2.586097         2.249931
 C        -1.140828        -1.269938         2.846077
 C        -0.732625        -0.012977         2.026584
 H        -0.391791         0.523032        -0.507163
 H        -3.615626         0.911018         2.109526
 H        -3.184542         1.741812         0.543424
 H        -2.717722        -0.639770        -0.566695
 H        -4.327105        -1.555725         1.690239
 H        -3.104385        -2.557348         0.709968
 H        -2.948903        -2.632595         3.337444
 H        -0.890301        -1.327522         3.905244
 H        -0.513814         0.832757         2.690510
 H         0.170604        -0.283770         1.498414
