19
Iteration:  3499
 O        -0.907178         0.975731        -0.153975
 C        -1.647366         0.311963         0.836955
 C        -2.908627         0.953296         1.402281
 C        -2.890844        -0.403355         0.625411
 C        -3.224565        -1.758619         1.315471
 C        -2.391664        -2.044908         2.493497
 O        -1.030077        -2.477085         2.159472
 C        -1.261866        -1.218839         2.795084
 C        -0.731219        -0.113800         2.045899
 H        -1.339072         1.835683        -0.207273
 H        -2.992977         0.936893         2.547290
 H        -3.495431         1.700523         0.824805
 H        -3.472953        -0.258500        -0.211352
 H        -4.394384        -1.811784         1.554797
 H        -3.157771        -2.510286         0.451827
 H        -2.838503        -2.651324         3.329056
 H        -0.899698        -1.078819         3.854279
 H        -0.609827         0.658183         2.766999
 H         0.282274        -0.419199         1.639023
