19
Iteration:  2368charge 0 multiplicity 1
 O        -0.869329         0.805624        -0.118859
 C        -1.649422         0.307561         0.946792
 C        -3.033967         0.986888         1.210756
 C        -2.857274        -0.445158         0.613436
 C        -3.400079        -1.497771         1.551790
 C        -2.300392        -2.114705         2.521143
 O        -1.007517        -2.436205         1.895422
 C        -1.091961        -1.331456         2.801251
 C        -0.847493        -0.010161         2.133493
 H        -0.515605         1.720769         0.112003
 H        -3.745857         0.949086         2.118272
 H        -3.505874         1.595238         0.433674
 H        -3.270343        -0.548665        -0.386110
 H        -4.317160        -1.082330         1.949300
 H        -3.583426        -2.362923         0.941350
 H        -2.544891        -2.859744         3.175836
 H        -0.554519        -1.511790         3.792860
 H        -0.603391         0.650391         3.040443
 H         0.246640        -0.116706         1.859169
