19
Iteration:  1111charge 0 multiplicity 1
 O        -1.047495         1.145710        -0.132070
 C        -1.678314         0.347865         0.862171
 C        -3.104845         0.701586         1.370095
 C        -2.933798        -0.464865         0.412262
 C        -2.964050        -1.812052         1.068785
 C        -2.369980        -1.868251         2.556800
 O        -1.123619        -2.486946         2.619050
 C        -1.175020        -1.092056         2.888879
 C        -0.640086        -0.258136         1.760257
 H        -0.687463         1.926448         0.377488
 H        -3.189433         0.377464         2.434732
 H        -3.624694         1.653116         1.321721
 H        -3.285290        -0.353771        -0.614491
 H        -4.082865        -1.955745         1.134330
 H        -2.664113        -2.679065         0.496590
 H        -2.987683        -1.979479         3.446537
 H        -0.992130        -0.899580         3.872400
 H        -0.119986         0.642656         2.276069
 H         0.162711        -0.826920         1.255524
