19
Iteration:  3657charge 0 multiplicity 1
 O        -1.109419         1.038971        -0.251034
 C        -1.699222         0.472798         0.941267
 C        -2.994244         1.093860         1.456704
 C        -2.895592        -0.337096         0.627891
 C        -3.025840        -1.840032         1.137108
 C        -2.437967        -2.107179         2.447398
 O        -1.137132        -2.653693         2.473043
 C        -1.110188        -1.210104         2.844002
 C        -0.666851        -0.198034         1.880721
 H        -0.748549         1.895118        -0.023246
 H        -3.240716         0.979679         2.508274
 H        -3.126574         2.067357         1.093436
 H        -3.119811        -0.408684        -0.503530
 H        -4.121901        -2.161102         0.923246
 H        -2.365926        -2.315982         0.435243
 H        -3.066872        -2.467220         3.248719
 H        -0.859169        -1.225565         3.873978
 H        -0.181935         0.559449         2.459894
 H         0.126716        -0.491392         1.235668
