19
Iteration:   765charge 0 multiplicity 1
 O        -0.907641         0.861760        -0.070396
 C        -1.719631         0.246655         0.979309
 C        -3.131459         0.951662         0.824746
 C        -2.990554        -0.517331         0.596897
 C        -3.356247        -1.603054         1.520401
 C        -2.171796        -2.131679         2.429532
 O        -0.808309        -2.416278         2.026689
 C        -1.228107        -1.241883         2.930267
 C        -0.829188         0.104427         2.273145
 H        -0.061917         0.887834         0.367559
 H        -3.711421         1.293754         1.647320
 H        -3.154556         1.646407        -0.007318
 H        -3.042439        -0.875191        -0.448710
 H        -4.113796        -1.285678         2.261587
 H        -3.785110        -2.515268         1.005634
 H        -2.596684        -2.864172         3.161859
 H        -0.807378        -1.402104         3.929361
 H        -0.979224         1.050063         2.954877
 H         0.240208         0.319896         1.985254
