19
Iteration:  1996
 O        -1.049564         0.930971        -0.232237
 C        -1.661750         0.332655         0.863262
 C        -2.913269         0.987586         1.386820
 C        -2.917213        -0.409381         0.593501
 C        -3.211601        -1.649087         1.348967
 C        -2.393395        -2.018334         2.497864
 O        -1.063774        -2.514015         2.094505
 C        -1.104551        -1.281504         2.888626
 C        -0.730588        -0.077509         2.100238
 H        -0.074824         0.883470        -0.011910
 H        -3.263505         0.913497         2.492399
 H        -3.267497         1.881185         0.875449
 H        -3.237639        -0.211438        -0.373443
 H        -4.301740        -1.719116         1.606779
 H        -3.176479        -2.411480         0.602867
 H        -2.935683        -2.532181         3.248264
 H        -0.960247        -1.491983         3.945977
 H        -0.686502         0.783235         2.693252
 H         0.305792        -0.288075         1.781030
