19
Iteration:  3205charge 0 multiplicity 1
 O        -0.916895         0.889064        -0.081258
 C        -1.652272         0.427984         1.003070
 C        -3.075538         1.060642         1.114427
 C        -2.930399        -0.335810         0.675646
 C        -3.341185        -1.587149         1.494752
 C        -2.306239        -2.043064         2.426816
 O        -0.937587        -2.595001         1.985907
 C        -1.096183        -1.363711         2.749463
 C        -0.790549        -0.011264         2.201014
 H        -0.704531         0.150475        -0.688104
 H        -3.434189         0.910864         2.143632
 H        -3.232769         1.685727         0.275191
 H        -3.210382        -0.599860        -0.310912
 H        -4.242807        -1.386596         2.097358
 H        -3.572552        -2.514051         0.890028
 H        -2.768616        -2.661316         3.205574
 H        -0.782208        -1.698246         3.785176
 H        -0.916887         0.732267         3.025971
 H         0.255875         0.002254         1.931886
