19
Iteration:  2917
 O        -1.083872         1.049643        -0.117252
 C        -1.630137         0.400413         1.003616
 C        -2.990451         0.873413         1.213986
 C        -2.705158        -0.516388         0.572009
 C        -3.365243        -1.647068         1.451109
 C        -2.427020        -2.008411         2.580458
 O        -1.139996        -2.482749         1.941513
 C        -1.093072        -1.356607         2.809398
 C        -0.644915        -0.022697         2.104756
 H        -0.163205         0.726314        -0.264029
 H        -3.232061         0.942187         2.315236
 H        -3.058157         1.756723         0.598574
 H        -2.903474        -0.753973        -0.448143
 H        -4.284301        -1.175797         1.949478
 H        -3.608146        -2.547722         0.899327
 H        -2.808689        -2.718247         3.338793
 H        -0.602848        -1.270324         3.829547
 H        -0.455394         0.707273         2.912578
 H         0.362392        -0.311645         1.664616
