19
Iteration:  2155charge 0 multiplicity 1
 O        -0.913172         0.743028        -0.161893
 C        -1.661398         0.391344         1.001326
 C        -2.925610         1.085577         1.244463
 C        -2.894558        -0.326227         0.743150
 C        -3.371282        -1.652913         1.442906
 C        -2.274612        -2.187363         2.398808
 O        -1.002947        -2.471796         1.932132
 C        -1.158706        -1.256830         2.794268
 C        -0.777076         0.033865         2.185442
 H        -1.531717         0.450354        -0.860006
 H        -3.215103         1.057012         2.270086
 H        -3.190333         1.845288         0.574607
 H        -2.976886        -0.403592        -0.300318
 H        -4.208517        -1.467223         2.101903
 H        -3.728590        -2.454154         0.753993
 H        -2.670601        -2.861208         3.239498
 H        -0.834000        -1.379881         3.821365
 H        -1.075706         0.670242         3.032940
 H         0.262124         0.244129         2.125361
