19
Iteration:  4429
 O        -1.047105         1.145510        -0.161321
 C        -1.696542         0.389742         0.925501
 C        -3.001805         0.784915         1.498820
 C        -2.910740        -0.368392         0.548418
 C        -3.180441        -1.750809         1.122946
 C        -2.396495        -1.940980         2.486718
 O        -1.066671        -2.546510         2.470580
 C        -1.215188        -1.187582         2.824046
 C        -0.535025        -0.240863         1.756522
 H        -0.369815         1.646274         0.391485
 H        -3.363556         0.348161         2.433385
 H        -3.370780         1.784615         1.216193
 H        -3.267914        -0.269056        -0.526821
 H        -4.310156        -1.829811         1.362228
 H        -2.961338        -2.579452         0.443012
 H        -2.918589        -2.450368         3.254736
 H        -1.192841        -0.818176         3.899592
 H         0.195252         0.408319         2.276329
 H         0.014480        -0.958945         1.167597
