19
Iteration:  1303
 O        -0.788229         0.794212        -0.053694
 C        -1.687913         0.397323         0.948783
 C        -3.163419         0.918546         1.122302
 C        -2.856925        -0.486236         0.568975
 C        -3.216811        -1.711763         1.400072
 C        -2.334534        -2.166457         2.549757
 O        -0.946010        -2.313879         2.057957
 C        -1.226443        -1.210161         2.926279
 C        -0.852054         0.054080         2.098752
 H        -1.034091         1.475630        -0.667469
 H        -3.646340         1.033606         2.073578
 H        -3.539510         1.619238         0.315452
 H        -3.078449        -0.557739        -0.491309
 H        -4.167427        -1.671966         1.854459
 H        -3.417475        -2.569677         0.713251
 H        -2.561030        -2.878111         3.281709
 H        -0.760566        -1.398688         3.961516
 H        -0.708241         0.970040         2.744493
 H         0.131968        -0.159583         1.587912
