19
Iteration:  4837charge 0 multiplicity 1
 O        -0.928315         0.909097        -0.100591
 C        -1.721017         0.409672         0.983800
 C        -3.044650         0.998266         1.182916
 C        -2.988334        -0.425695         0.632681
 C        -3.326984        -1.708328         1.408727
 C        -2.292400        -2.093331         2.527889
 O        -1.011840        -2.554487         2.033442
 C        -1.056463        -1.295884         2.796049
 C        -0.712093        -0.008183         2.057877
 H        -0.404839         1.674622         0.226350
 H        -3.566364         1.045812         2.199295
 H        -3.393856         1.737627         0.507852
 H        -3.263887        -0.459250        -0.395034
 H        -4.337998        -1.578480         1.723532
 H        -3.182239        -2.537976         0.676693
 H        -2.708980        -2.426160         3.495375
 H        -0.572229        -1.340389         3.826409
 H        -0.794916         0.842741         2.787274
 H         0.375279        -0.067526         1.757070
