19
Iteration:   841
 O        -0.919295         0.753628        -0.136903
 C        -1.711717         0.313457         0.911761
 C        -3.124688         1.035502         1.045499
 C        -2.976781        -0.457690         0.567937
 C        -3.187041        -1.658801         1.402222
 C        -2.290904        -2.022493         2.580020
 O        -0.896430        -2.430310         2.107632
 C        -1.105826        -1.291031         2.844654
 C        -0.936780         0.051515         2.186727
 H        -0.348372         1.403197         0.290373
 H        -3.445658         1.183108         2.030780
 H        -3.239657         1.907242         0.358635
 H        -2.965828        -0.679440        -0.516230
 H        -4.124052        -1.779050         1.893518
 H        -3.052333        -2.527959         0.715990
 H        -2.680740        -2.903542         3.109274
 H        -0.640982        -1.427823         3.944165
 H        -1.213755         0.849668         2.958129
 H         0.171693         0.242884         2.028077
