19
Iteration:  4012
 O        -0.986552         0.946936        -0.225871
 C        -1.622139         0.354309         0.922846
 C        -2.959547         1.004590         1.196502
 C        -2.854626        -0.421095         0.619610
 C        -3.330526        -1.637090         1.501333
 C        -2.405469        -2.173303         2.484797
 O        -0.842496        -2.454282         2.005043
 C        -1.204642        -1.368072         2.858526
 C        -0.876451        -0.000741         2.186029
 H        -0.120472         1.366048        -0.029361
 H        -3.390106         1.048377         2.159231
 H        -3.289600         1.867577         0.584558
 H        -3.225696        -0.692102        -0.436463
 H        -4.131253        -1.194501         2.148169
 H        -3.854985        -2.400572         1.019960
 H        -2.894595        -2.934560         3.030807
 H        -0.732263        -1.471903         3.865024
 H        -0.757397         0.840883         2.819421
 H         0.110868        -0.324325         1.941498
