19
Iteration:  3482
 O        -0.910050         0.863354        -0.207665
 C        -1.644125         0.399740         0.987362
 C        -2.957270         0.927132         1.412158
 C        -2.896674        -0.413297         0.724912
 C        -3.308400        -1.749082         1.219574
 C        -2.408156        -2.106713         2.490207
 O        -1.046089        -2.431713         2.100417
 C        -1.216070        -1.223687         2.839426
 C        -0.671970        -0.013041         2.038802
 H        -1.222678         1.736565        -0.495073
 H        -3.102268         1.000340         2.470027
 H        -3.329375         1.750711         0.843762
 H        -3.008647        -0.349445        -0.415460
 H        -4.300548        -1.727988         1.562579
 H        -2.939657        -2.561683         0.610972
 H        -2.964681        -2.724254         3.253395
 H        -0.943502        -1.347429         3.881135
 H        -0.504743         0.896175         2.707619
 H         0.251780        -0.343784         1.562602
