19
Iteration:  2661charge 0 multiplicity 1
 O        -1.096467         1.023591        -0.166577
 C        -1.598916         0.363539         0.917892
 C        -2.968833         1.023765         1.510347
 C        -2.959721        -0.331024         0.677765
 C        -3.098857        -1.688288         1.128799
 C        -2.347744        -2.073096         2.367517
 O        -1.056843        -2.569517         2.404372
 C        -1.258625        -1.241336         2.830115
 C        -0.653307        -0.174764         1.900434
 H        -0.615287         0.318002        -0.716126
 H        -3.167894         1.137782         2.558424
 H        -3.268151         1.888085         0.855126
 H        -3.425580        -0.010698        -0.255569
 H        -4.111504        -1.943450         1.386895
 H        -2.940233        -2.357505         0.274264
 H        -2.915040        -2.470684         3.316574
 H        -1.150909        -1.145330         3.877897
 H        -0.086204         0.715241         2.281394
 H         0.164484        -0.846423         1.448697
