19
Iteration:  4484charge 0 multiplicity 1
 O        -1.138997         1.096258        -0.265744
 C        -1.620400         0.502868         0.953785
 C        -3.006839         0.939301         1.362435
 C        -2.849110        -0.313232         0.613419
 C        -3.129514        -1.765522         1.178442
 C        -2.342246        -2.041190         2.507682
 O        -1.138155        -2.710499         2.422916
 C        -1.157439        -1.267730         2.852525
 C        -0.630918        -0.187466         1.910107
 H        -0.734322         1.979388         0.010074
 H        -3.207222         0.843183         2.400613
 H        -3.450938         1.798204         0.777933
 H        -3.219279        -0.191619        -0.411326
 H        -4.212572        -2.081876         1.259877
 H        -2.591445        -2.363438         0.442377
 H        -2.911638        -2.213965         3.367522
 H        -1.010148        -1.127691         3.936863
 H        -0.191606         0.504003         2.608007
 H         0.196756        -0.636558         1.372928
