19
Iteration:  1251
 O        -1.075173         1.074081        -0.242159
 C        -1.615060         0.382710         0.880766
 C        -3.088355         0.885605         1.070691
 C        -2.701823        -0.526998         0.506056
 C        -3.185014        -1.681332         1.383757
 C        -2.332655        -2.061757         2.570591
 O        -1.082945        -2.590058         2.275470
 C        -1.109119        -1.258189         2.939432
 C        -0.835963         0.003353         2.138631
 H        -0.743717         1.942729         0.026682
 H        -3.232823         0.772602         2.126816
 H        -3.450510         1.802047         0.515402
 H        -2.765403        -0.638352        -0.598758
 H        -4.214629        -1.686157         1.800288
 H        -3.266345        -2.545180         0.666152
 H        -2.776553        -2.648719         3.386848
 H        -0.590251        -1.323300         3.885943
 H        -0.782684         0.792710         2.850169
 H         0.168227        -0.045262         1.742415
