19
Iteration:  2015
 O        -0.914108         0.945748        -0.133053
 C        -1.643678         0.353718         0.968321
 C        -3.010468         0.926505         1.273963
 C        -2.933952        -0.413964         0.651560
 C        -3.330466        -1.693951         1.403475
 C        -2.399098        -2.060012         2.522902
 O        -1.064553        -2.458489         2.038637
 C        -1.161258        -1.239186         2.845588
 C        -0.692538        -0.085821         1.998425
 H        -0.087791         1.487765         0.019148
 H        -3.204184         1.038317         2.362441
 H        -3.362923         1.730470         0.586385
 H        -3.089051        -0.405150        -0.466027
 H        -4.371381        -1.601666         1.815768
 H        -3.458993        -2.620867         0.786785
 H        -2.733982        -2.710703         3.309612
 H        -0.522433        -1.285861         3.771219
 H        -0.258896         0.714911         2.689442
 H         0.202571        -0.498526         1.477571
