19
Iteration:  3564
 O        -1.121591         1.170717        -0.115045
 C        -1.636936         0.437185         0.983465
 C        -3.037205         0.913765         1.238750
 C        -2.833259        -0.475597         0.456493
 C        -3.205890        -1.692998         1.275651
 C        -2.384548        -2.025605         2.603367
 O        -1.189262        -2.635199         2.315777
 C        -1.058209        -1.230379         2.845431
 C        -0.566970        -0.176632         1.921280
 H        -0.408662         1.753377         0.259723
 H        -3.465078         0.700095         2.280695
 H        -3.421731         1.844875         0.815021
 H        -3.155843        -0.401255        -0.508399
 H        -4.299479        -1.789563         1.279336
 H        -2.938035        -2.638852         0.728963
 H        -2.856002        -2.567902         3.444309
 H        -0.634125        -1.277929         3.870566
 H         0.064909         0.549587         2.349446
 H         0.156316        -0.642355         1.196716
