19
Iteration:   840charge 0 multiplicity 1
 O        -0.917512         0.754382        -0.135962
 C        -1.716428         0.310745         0.907765
 C        -3.121602         1.039314         1.045093
 C        -2.970478        -0.465706         0.577856
 C        -3.198048        -1.674582         1.395761
 C        -2.290167        -2.017078         2.587797
 O        -0.898953        -2.432469         2.103946
 C        -1.100895        -1.285994         2.834245
 C        -0.934810         0.059196         2.191627
 H        -0.319748         1.394075         0.307247
 H        -3.463203         1.180324         2.052225
 H        -3.230833         1.929618         0.366493
 H        -2.945233        -0.668718        -0.511436
 H        -4.156168        -1.763407         1.872987
 H        -3.070164        -2.536652         0.710198
 H        -2.698385        -2.887601         3.095929
 H        -0.604618        -1.415950         3.949413
 H        -1.218880         0.844734         2.935455
 H         0.163702         0.268575         2.061992
