19
Iteration:    27charge 0 multiplicity 1
 O        -0.851080         0.637853        -0.065830
 C        -1.756445         0.343515         0.943385
 C        -3.161880         0.840122         0.832451
 C        -2.868527        -0.610971         0.476000
 C        -3.313152        -1.633720         1.489233
 C        -2.121246        -2.151949         2.375690
 O        -0.717291        -2.220998         2.133450
 C        -1.316461        -1.167433         2.990255
 C        -1.055405         0.234565         2.309273
 H        -0.096142         1.065144         0.336344
 H        -3.907145         1.152523         1.645719
 H        -3.403214         1.493549        -0.063265
 H        -2.808380        -0.867254        -0.588345
 H        -4.024075        -1.239356         2.230855
 H        -3.775632        -2.519774         1.053106
 H        -2.384477        -3.061680         2.941182
 H        -0.870954        -1.207342         4.010535
 H        -1.219102         1.152176         2.979634
 H         0.113887         0.201755         2.189050
