19
Iteration:  3340
 O        -0.824652         0.711600        -0.178239
 C        -1.655964         0.452629         0.950567
 C        -2.998718         1.096440         1.189270
 C        -2.931389        -0.393212         0.705572
 C        -3.331943        -1.736428         1.525259
 C        -2.334720        -2.114717         2.457127
 O        -0.942668        -2.446367         1.928311
 C        -1.149215        -1.345758         2.826544
 C        -0.922729         0.058623         2.190414
 H        -0.849912         1.642539        -0.386514
 H        -3.387836         1.298053         2.159131
 H        -3.375267         1.975776         0.672441
 H        -3.046429        -0.476772        -0.358167
 H        -4.230513        -1.428149         2.046887
 H        -3.412668        -2.599876         0.731643
 H        -2.593981        -3.019480         3.026248
 H        -0.484613        -1.550744         3.622385
 H        -1.163436         0.702455         3.053722
 H         0.128681         0.085033         2.101981
