19
Iteration:  3627charge 0 multiplicity 1
 O        -1.083382         1.058036        -0.311679
 C        -1.654199         0.419946         0.938793
 C        -2.978654         0.902460         1.484472
 C        -2.901603        -0.323268         0.632330
 C        -3.151804        -1.732055         1.138478
 C        -2.423847        -2.032687         2.377169
 O        -1.031712        -2.589513         2.452389
 C        -1.211984        -1.222308         2.878363
 C        -0.620680        -0.240654         1.947345
 H        -0.883124         2.018322        -0.186223
 H        -3.180747         0.974250         2.628381
 H        -3.357155         1.811944         0.991613
 H        -3.371760        -0.335260        -0.347222
 H        -4.220691        -1.893977         1.152219
 H        -2.531775        -2.329423         0.388590
 H        -2.992656        -2.502295         3.178588
 H        -1.105875        -1.136183         3.959276
 H         0.022128         0.499756         2.647012
 H         0.175147        -0.772106         1.392825
