19
Iteration:  3338charge 0 multiplicity 1
 O        -0.804559         0.708979        -0.187785
 C        -1.670025         0.460356         0.954298
 C        -2.977537         1.100394         1.199788
 C        -2.906491        -0.365024         0.707506
 C        -3.358532        -1.757563         1.536262
 C        -2.314958        -2.127365         2.443955
 O        -0.937116        -2.453687         1.940106
 C        -1.163290        -1.344053         2.805145
 C        -0.946326         0.067920         2.190456
 H        -0.905596         1.632860        -0.397717
 H        -3.432771         1.287800         2.175142
 H        -3.371493         2.073683         0.673046
 H        -3.127673        -0.587050        -0.347634
 H        -4.259081        -1.525488         2.088072
 H        -3.442738        -2.582885         0.709189
 H        -2.590704        -3.010304         3.077932
 H        -0.448712        -1.565751         3.678817
 H        -1.240237         0.756678         3.070895
 H         0.144666         0.103479         1.993788
