19
Iteration:  3602
 O        -1.030697         1.074389        -0.106312
 C        -1.690506         0.349639         0.857401
 C        -2.879536         0.815178         1.514141
 C        -2.891365        -0.380671         0.509609
 C        -3.179090        -1.764333         1.205262
 C        -2.387711        -2.028348         2.447248
 O        -1.102621        -2.585614         2.412160
 C        -1.225926        -1.143576         2.773968
 C        -0.657204        -0.098830         1.834780
 H        -0.480009         1.760570         0.278367
 H        -2.939311         0.686216         2.560455
 H        -3.484367         1.584117         1.068291
 H        -3.381053        -0.266984        -0.560624
 H        -4.310189        -1.695266         1.448305
 H        -2.949629        -2.592775         0.538637
 H        -2.995478        -2.376541         3.278040
 H        -0.861100        -0.996337         3.817437
 H        -0.291442         0.768681         2.461271
 H         0.160820        -0.591531         1.326718
