19
Iteration:  2839charge 0 multiplicity 1
 O        -0.988304         0.946022        -0.209985
 C        -1.661263         0.416754         0.984734
 C        -2.934136         1.039891         1.399015
 C        -2.914327        -0.362848         0.688931
 C        -3.216560        -1.727570         1.244594
 C        -2.448567        -2.052381         2.423270
 O        -1.012672        -2.550568         2.157345
 C        -1.170798        -1.304995         2.867747
 C        -0.675906        -0.021163         2.068230
 H        -1.000135         0.247302        -0.935743
 H        -3.269318         1.074821         2.417904
 H        -3.538465         1.717665         0.662263
 H        -3.149854        -0.295920        -0.365216
 H        -4.284517        -1.832822         1.649295
 H        -3.166791        -2.528470         0.506155
 H        -2.877407        -2.570392         3.248688
 H        -0.951083        -1.248156         3.983164
 H        -0.351065         0.668730         2.861743
 H         0.269523        -0.314791         1.514534
