19
Iteration:  2076charge 0 multiplicity 1
 O        -0.921123         1.015778        -0.168086
 C        -1.664000         0.421063         0.896584
 C        -3.018651         1.031637         1.161514
 C        -2.823540        -0.460905         0.627058
 C        -3.352611        -1.593377         1.552896
 C        -2.324153        -2.067528         2.577351
 O        -1.083387        -2.634280         2.052810
 C        -1.054158        -1.404865         2.754755
 C        -0.697192        -0.102294         2.132672
 H        -1.566705         1.603066        -0.628391
 H        -3.425109         1.214215         2.105837
 H        -3.238126         1.963330         0.556934
 H        -2.936247        -0.486172        -0.522834
 H        -4.320227        -1.309182         1.962849
 H        -3.362436        -2.443402         0.841907
 H        -3.037995        -2.678025         3.223162
 H        -0.619725        -1.552430         3.754481
 H        -1.130156         0.558311         2.846238
 H         0.334046         0.223494         2.083361
