19
Iteration:   548
 O        -0.994780         1.016285        -0.179467
 C        -1.657395         0.299841         0.827707
 C        -3.100776         0.858071         1.082165
 C        -2.907273        -0.523597         0.467192
 C        -3.150973        -1.755475         1.336366
 C        -2.242203        -2.173222         2.493851
 O        -0.901873        -2.415474         2.328588
 C        -1.236045        -1.133909         2.991297
 C        -0.906136         0.110840         2.154912
 H        -0.087407         0.651178        -0.420706
 H        -3.280878         0.783031         2.144458
 H        -3.339762         1.808354         0.493853
 H        -3.126627        -0.556462        -0.627604
 H        -4.069973        -1.485449         1.882838
 H        -3.428724        -2.604306         0.691676
 H        -2.837712        -2.744042         3.308078
 H        -0.905667        -1.271290         3.990337
 H        -0.852283         0.906019         2.829083
 H         0.089858        -0.192727         1.897414
