19
Iteration:  3883
 O        -0.948198         0.998669        -0.091586
 C        -1.647471         0.418393         0.959593
 C        -3.097925         1.002112         1.132843
 C        -2.878206        -0.440921         0.594023
 C        -3.287145        -1.643495         1.399187
 C        -2.258170        -2.060260         2.538326
 O        -1.091849        -2.616010         2.085038
 C        -1.083660        -1.273150         2.950719
 C        -0.755990        -0.090826         2.025190
 H        -0.774523         1.949410         0.185664
 H        -3.562136         0.871307         2.058693
 H        -3.333842         1.839778         0.464443
 H        -3.257424        -0.681295        -0.496548
 H        -4.305539        -1.576633         1.755948
 H        -3.103039        -2.576850         0.636643
 H        -2.896516        -2.609203         3.222572
 H        -0.400867        -1.488816         3.727874
 H        -0.385904         0.775915         2.675506
 H         0.166109        -0.478897         1.493615
