19
Iteration:  2372
 O        -0.882718         0.844345        -0.130841
 C        -1.642840         0.311908         0.960341
 C        -3.088869         1.038466         1.189569
 C        -2.835685        -0.450517         0.589510
 C        -3.372351        -1.505321         1.561289
 C        -2.314611        -2.103722         2.510788
 O        -1.021656        -2.490344         1.909878
 C        -1.068153        -1.322059         2.806879
 C        -0.839534        -0.009268         2.150236
 H        -0.336403         1.603824         0.155644
 H        -3.522608         0.941781         2.174596
 H        -3.603299         1.550451         0.394976
 H        -3.211910        -0.706778        -0.390209
 H        -4.290489        -1.160562         2.098622
 H        -3.604081        -2.381092         0.951116
 H        -2.657739        -2.918097         3.221358
 H        -0.548913        -1.598260         3.709479
 H        -0.642625         0.695205         2.952755
 H         0.239609        -0.114450         1.848925
