19
Iteration:   274
 O        -1.100596         1.230323        -0.131827
 C        -1.675016         0.322661         0.858368
 C        -3.060541         0.712203         1.207326
 C        -2.926178        -0.575947         0.419769
 C        -3.073127        -1.912465         1.151026
 C        -2.359612        -1.843758         2.539595
 O        -1.060083        -2.481443         2.626218
 C        -1.188189        -1.073167         2.916566
 C        -0.642141        -0.182596         1.872293
 H        -0.276235         1.538849         0.351505
 H        -3.631526         0.789137         2.142709
 H        -3.255137         1.592463         0.516127
 H        -3.009309        -0.577368        -0.589514
 H        -4.109959        -2.315434         1.244496
 H        -2.388179        -2.526028         0.577126
 H        -3.074910        -1.946380         3.411881
 H        -1.097353        -0.893068         4.009501
 H        -0.201429         0.753649         2.410842
 H         0.107040        -0.664215         1.264123
