19
Iteration:   249
 O        -1.133856         1.262074        -0.181686
 C        -1.667495         0.453331         0.782534
 C        -3.086937         0.792660         1.222712
 C        -2.736286        -0.547045         0.412674
 C        -3.069545        -1.842665         1.219743
 C        -2.359882        -2.137972         2.531773
 O        -1.005130        -2.518700         2.740469
 C        -1.331951        -1.085175         2.879024
 C        -0.656743        -0.124822         1.867460
 H        -0.257138         0.845559        -0.293328
 H        -3.285101         0.853783         2.248825
 H        -3.577405         1.556387         0.660431
 H        -2.905589        -0.496726        -0.732857
 H        -4.069878        -1.716903         1.539567
 H        -2.938428        -2.679061         0.514810
 H        -3.060973        -2.546440         3.261093
 H        -1.255671        -0.841400         3.917626
 H        -0.342122         0.764038         2.455262
 H         0.220749        -0.631652         1.329397
