19
Iteration:  4184
 O        -1.002409         1.004758        -0.319604
 C        -1.668792         0.381878         0.936010
 C        -3.005690         0.959192         1.284328
 C        -2.847453        -0.474709         0.638873
 C        -3.212083        -1.669555         1.371925
 C        -2.344464        -1.971578         2.540285
 O        -1.109500        -2.567132         2.114479
 C        -1.091269        -1.356569         2.807483
 C        -0.730808        -0.022650         2.181864
 H        -0.711343         1.852075         0.097678
 H        -3.319861         0.964338         2.371594
 H        -3.412330         1.673828         0.619978
 H        -3.055154        -0.445692        -0.471735
 H        -4.286406        -1.808787         1.573221
 H        -3.050236        -2.570473         0.685118
 H        -2.783415        -2.679999         3.309207
 H        -0.852257        -1.500151         3.855701
 H        -0.840164         0.551932         3.095279
 H         0.311127        -0.100258         1.823293
