19
Iteration:   684charge 0 multiplicity 1
 O        -0.768192         0.698872         0.043300
 C        -1.706862         0.311983         0.970454
 C        -3.178471         0.873972         0.953712
 C        -2.819210        -0.564614         0.574519
 C        -3.307081        -1.709595         1.475792
 C        -2.262329        -2.108231         2.532015
 O        -0.925449        -2.242019         1.909588
 C        -1.195690        -1.134552         2.867162
 C        -0.896226         0.194160         2.285224
 H        -1.197541         0.724370        -0.807367
 H        -3.699630         0.938494         1.907700
 H        -3.486572         1.665110         0.191799
 H        -2.918066        -0.668425        -0.500530
 H        -4.232051        -1.475191         1.969996
 H        -3.449567        -2.647220         0.973568
 H        -2.423832        -2.928048         3.199982
 H        -0.767413        -1.350600         3.918041
 H        -1.032168         1.052151         2.959014
 H         0.112155         0.117028         1.853063
