19
Iteration:  3600
 O        -1.023121         1.088826        -0.104812
 C        -1.697556         0.343850         0.871415
 C        -2.888940         0.802449         1.502591
 C        -2.880846        -0.403286         0.515773
 C        -3.182639        -1.751522         1.218666
 C        -2.367221        -2.006362         2.439785
 O        -1.113746        -2.580071         2.405599
 C        -1.228474        -1.163655         2.763019
 C        -0.658887        -0.097653         1.838822
 H        -0.420292         1.766968         0.284203
 H        -2.918706         0.639336         2.549306
 H        -3.453238         1.625124         1.025313
 H        -3.459410        -0.331050        -0.471261
 H        -4.331965        -1.630202         1.367847
 H        -2.928771        -2.598823         0.594042
 H        -2.958070        -2.378767         3.287578
 H        -0.854800        -0.919218         3.818729
 H        -0.369752         0.727396         2.439046
 H         0.138828        -0.637008         1.311114
