19
Iteration:  4869
 O        -1.072330         0.908839        -0.208306
 C        -1.605852         0.443202         1.005851
 C        -2.978655         0.930629         1.275688
 C        -2.745687        -0.506668         0.576383
 C        -3.321694        -1.593540         1.432211
 C        -2.330961        -2.180644         2.492840
 O        -0.984983        -2.420880         2.014566
 C        -1.222589        -1.285085         2.916488
 C        -0.694750        -0.068712         2.087917
 H        -0.976784         1.851270        -0.142402
 H        -3.548216         0.745393         2.277611
 H        -3.416569         1.724687         0.726025
 H        -2.922222        -0.415755        -0.447860
 H        -4.308553        -1.386516         1.763445
 H        -3.737627        -2.242770         0.652473
 H        -2.798160        -2.843205         3.223476
 H        -0.822133        -1.492042         3.980651
 H        -0.670116         0.854740         2.731073
 H         0.329305        -0.385000         1.697040
