19
Iteration:  2883
 O        -0.943902         1.123852        -0.077106
 C        -1.663426         0.410830         0.909253
 C        -3.014422         0.952478         1.210887
 C        -2.920566        -0.450538         0.574223
 C        -3.304731        -1.645740         1.450204
 C        -2.385153        -2.019243         2.506553
 O        -1.025974        -2.625771         2.109160
 C        -1.044701        -1.342055         2.830899
 C        -0.771146        -0.107420         2.042461
 H        -0.338645         0.389955        -0.439471
 H        -3.126297         1.237166         2.259986
 H        -3.301509         1.866976         0.546202
 H        -3.286756        -0.406620        -0.426462
 H        -4.365083        -1.331127         1.853282
 H        -3.618799        -2.498651         0.880018
 H        -2.697621        -2.694619         3.242458
 H        -0.768810        -1.547279         3.896454
 H        -0.589430         0.831388         2.610875
 H         0.264321        -0.301646         1.586801
