19
Iteration:   478
 O        -0.924723         0.982362        -0.094109
 C        -1.677125         0.282787         0.881516
 C        -3.171749         0.787162         1.202620
 C        -2.865518        -0.532295         0.472949
 C        -3.108647        -1.799619         1.179343
 C        -2.387388        -1.984332         2.558784
 O        -0.960095        -2.354886         2.435453
 C        -1.154319        -1.096724         2.867667
 C        -0.771331        -0.041171         2.028655
 H        -1.589339         1.494851        -0.640504
 H        -3.506460         0.648453         2.243210
 H        -3.472382         1.597271         0.638830
 H        -2.977815        -0.605174        -0.564551
 H        -4.194001        -1.892839         1.481526
 H        -2.794744        -2.687105         0.541298
 H        -2.892214        -2.474727         3.364607
 H        -1.006849        -0.991940         3.978629
 H        -0.569858         0.930567         2.460855
 H         0.205376        -0.353015         1.564184
