19
Iteration:  3063charge 0 multiplicity 1
 O        -0.880389         1.029344        -0.058425
 C        -1.701702         0.344525         0.924855
 C        -3.008506         0.955961         1.194494
 C        -2.839678        -0.482523         0.603552
 C        -3.355506        -1.551319         1.583000
 C        -2.331177        -2.132657         2.516238
 O        -1.064517        -2.479705         1.958458
 C        -1.094089        -1.349243         2.740445
 C        -0.810785        -0.044826         2.083234
 H         0.023487         0.695819        -0.252876
 H        -3.331722         0.925386         2.208861
 H        -3.430934         1.614229         0.427351
 H        -3.089623        -0.711889        -0.439953
 H        -4.207587        -1.106862         2.112547
 H        -3.789232        -2.374637         0.912908
 H        -2.709235        -2.769027         3.377766
 H        -0.595666        -1.486822         3.724298
 H        -0.871249         0.765838         2.860051
 H         0.221206        -0.129061         1.728938
