19
Iteration:  2757
 O        -1.032460         1.252643        -0.047889
 C        -1.621295         0.438555         0.917281
 C        -3.133572         0.920834         1.183394
 C        -2.897101        -0.382941         0.523237
 C        -3.163821        -1.672318         1.407479
 C        -2.317899        -2.069954         2.516217
 O        -1.126245        -2.706799         2.318110
 C        -1.142073        -1.227903         2.865340
 C        -0.602112        -0.262786         1.874398
 H        -0.326188         0.745431        -0.491485
 H        -3.458226         0.969045         2.185473
 H        -3.427036         1.857263         0.698334
 H        -3.105024        -0.390554        -0.529467
 H        -4.295114        -1.530085         1.753477
 H        -3.359859        -2.452068         0.651853
 H        -2.951672        -2.258092         3.419269
 H        -0.720403        -1.186596         3.834454
 H         0.096652         0.392891         2.447070
 H         0.019320        -0.706559         1.086374
