19
Iteration:  3620charge 0 multiplicity 1
 O        -1.048369         1.077050        -0.297134
 C        -1.634424         0.379651         0.940792
 C        -2.996978         0.922861         1.479218
 C        -2.926303        -0.331695         0.643372
 C        -3.180416        -1.788678         1.085285
 C        -2.378517        -2.032648         2.451301
 O        -1.055084        -2.556917         2.443621
 C        -1.223624        -1.260384         2.883839
 C        -0.592719        -0.195990         1.904473
 H        -0.792989         1.969852        -0.041020
 H        -3.112117         0.608935         2.513851
 H        -3.270870         1.963642         1.202436
 H        -3.276574        -0.173898        -0.357426
 H        -4.268418        -1.884866         1.191199
 H        -2.902010        -2.517881         0.304031
 H        -2.960334        -2.509552         3.261995
 H        -1.115686        -0.920434         3.940082
 H        -0.253216         0.643283         2.467550
 H         0.204307        -0.730069         1.333977
