19
Iteration:  4779charge 0 multiplicity 1
 O        -1.065148         0.848797        -0.235530
 C        -1.658751         0.388960         1.031146
 C        -2.983702         0.988091         1.243272
 C        -2.814120        -0.432630         0.711415
 C        -3.282800        -1.669527         1.318408
 C        -2.364652        -2.206658         2.433711
 O        -0.973337        -2.440918         2.066198
 C        -1.185832        -1.290857         2.821124
 C        -0.729262         0.052700         2.176229
 H        -0.911867         1.801922        -0.080050
 H        -3.227867         0.998263         2.287709
 H        -3.304370         1.866604         0.571611
 H        -2.883092        -0.636899        -0.400568
 H        -4.194175        -1.455279         1.801230
 H        -3.554356        -2.504581         0.721528
 H        -2.756021        -2.689930         3.269362
 H        -0.624857        -1.421075         3.771110
 H        -0.598403         0.902331         2.908102
 H         0.302263        -0.262556         1.844565
