19
Iteration:  2790
 O        -0.993376         1.127119        -0.139554
 C        -1.649883         0.343111         0.861840
 C        -2.933619         0.903766         1.363790
 C        -2.951233        -0.414060         0.615840
 C        -3.277912        -1.753173         1.243031
 C        -2.412026        -2.006736         2.485260
 O        -1.068566        -2.533050         2.240749
 C        -1.154067        -1.240807         2.836563
 C        -0.649425        -0.131229         1.978942
 H        -0.337438         0.602966        -0.576825
 H        -2.953251         0.912903         2.462586
 H        -3.270290         1.797096         0.910132
 H        -3.375774        -0.196038        -0.364710
 H        -4.399551        -1.823417         1.682714
 H        -3.168227        -2.708104         0.664858
 H        -2.847301        -2.381881         3.450013
 H        -0.806380        -1.211388         3.852797
 H        -0.480992         0.616185         2.782069
 H         0.366578        -0.425324         1.707894
