19
Iteration:  3861charge 0 multiplicity 1
 O        -0.936810         1.062849        -0.149771
 C        -1.686590         0.438209         0.933082
 C        -3.120229         0.939740         1.260628
 C        -2.859942        -0.456898         0.569495
 C        -3.226015        -1.750571         1.364380
 C        -2.357782        -2.012446         2.629294
 O        -1.126835        -2.592211         2.170721
 C        -1.106844        -1.335869         2.698821
 C        -0.685232        -0.042404         2.040368
 H        -0.279434         1.574795         0.335353
 H        -3.261214         1.219683         2.271918
 H        -3.325240         1.648996         0.498277
 H        -3.184951        -0.438220        -0.549097
 H        -4.264864        -1.705191         1.618798
 H        -2.956482        -2.647522         0.651933
 H        -2.811954        -2.546480         3.445638
 H        -0.772949        -1.352826         3.717416
 H        -0.559023         0.683231         2.918346
 H         0.342947        -0.234271         1.616383
