19
Iteration:  1472charge 0 multiplicity 1
 O        -0.885190         0.759194        -0.097672
 C        -1.762501         0.367841         0.949241
 C        -2.987840         1.133756         1.088348
 C        -2.891372        -0.471354         0.615780
 C        -3.267709        -1.756269         1.395627
 C        -2.281694        -2.142506         2.453883
 O        -0.916836        -2.424287         2.074964
 C        -1.138369        -1.236297         2.925655
 C        -0.885010         0.026129         2.177401
 H        -0.896512         1.717739        -0.280225
 H        -3.431946         1.360699         2.029227
 H        -3.334990         1.918367         0.333386
 H        -3.110258        -0.633841        -0.418662
 H        -4.234894        -1.741831         1.801589
 H        -3.410607        -2.532358         0.633933
 H        -2.797375        -2.925625         3.112351
 H        -0.929280        -1.364375         3.945249
 H        -1.176012         0.762698         2.895163
 H         0.143840         0.108663         1.856775
