19
Iteration:  2304
 O        -0.827956         0.711154        -0.116633
 C        -1.727784         0.414923         0.944313
 C        -3.020418         1.190174         1.231636
 C        -2.939854        -0.331224         0.673244
 C        -3.269535        -1.576388         1.496816
 C        -2.268619        -2.136490         2.473945
 O        -1.024564        -2.556023         1.894592
 C        -1.017506        -1.314788         2.804691
 C        -0.901314        -0.013322         2.231807
 H        -1.168195         0.511446        -0.986659
 H        -3.209588         1.063552         2.281334
 H        -3.522679         1.856269         0.599427
 H        -3.279330        -0.391876        -0.343773
 H        -4.224006        -1.464262         2.032413
 H        -3.474927        -2.338834         0.785521
 H        -2.685824        -2.846179         3.118451
 H        -0.607488        -1.504620         3.787586
 H        -1.170294         0.755026         2.961537
 H         0.138045         0.170381         1.851839
