19
Iteration:   301charge 0 multiplicity 1
 O        -1.033313         1.055009        -0.192467
 C        -1.689820         0.386786         0.847218
 C        -3.158686         0.656834         1.316400
 C        -2.760197        -0.482138         0.495712
 C        -2.897027        -1.827034         1.080899
 C        -2.447947        -1.862644         2.585501
 O        -1.163704        -2.471285         2.648677
 C        -1.147546        -1.107279         2.898939
 C        -0.692681        -0.110704         1.828634
 H        -0.939211         1.969613         0.211787
 H        -3.527381         0.414792         2.379697
 H        -3.740314         1.429717         0.844071
 H        -3.110934        -0.468753        -0.673977
 H        -4.009887        -2.022775         1.015124
 H        -2.296136        -2.574147         0.492642
 H        -3.158783        -2.046301         3.362542
 H        -0.897603        -0.932739         3.943123
 H        -0.218762         0.707702         2.275721
 H        -0.020999        -0.569234         1.041208
