19
Iteration:  2281
 O        -0.832490         0.858744        -0.091235
 C        -1.675129         0.397811         0.992375
 C        -3.028281         1.045370         1.173022
 C        -3.082319        -0.357719         0.701063
 C        -3.401972        -1.593932         1.504433
 C        -2.329589        -2.111481         2.441145
 O        -0.979239        -2.583485         1.946730
 C        -0.979226        -1.341507         2.712025
 C        -0.787918         0.057228         2.210580
 H        -0.602956         0.045425        -0.668175
 H        -3.207138         1.294173         2.211801
 H        -3.003610         1.785737         0.400132
 H        -3.175953        -0.487994        -0.385764
 H        -4.272582        -1.342746         2.109050
 H        -3.754638        -2.395453         0.911196
 H        -2.733775        -2.764037         3.126372
 H        -0.569636        -1.554630         3.711309
 H        -1.122854         0.724524         3.033830
 H         0.252557         0.232955         1.858641
