19
Iteration:   810charge 0 multiplicity 1
 O        -0.868127         0.764742        -0.178715
 C        -1.636956         0.480877         0.947202
 C        -3.095749         0.793773         1.075440
 C        -2.845976        -0.588802         0.663262
 C        -3.250631        -1.727095         1.468189
 C        -2.306230        -2.045956         2.511415
 O        -1.052668        -2.403093         1.969383
 C        -1.143359        -1.214194         2.766085
 C        -0.883938         0.252087         2.320477
 H         0.053594         1.027298         0.014524
 H        -3.385382         1.025155         2.046687
 H        -3.577911         1.510335         0.379522
 H        -2.848140        -0.702759        -0.430527
 H        -4.195963        -1.623301         2.041110
 H        -3.388220        -2.611374         0.788734
 H        -2.755773        -2.831022         3.165978
 H        -0.772646        -1.349098         3.733474
 H        -1.262731         1.002131         3.109734
 H         0.224851         0.448045         2.280550
