19
Iteration:  2989charge 0 multiplicity 1
 O        -0.903046         0.866279        -0.257749
 C        -1.727904         0.407261         0.971222
 C        -3.060915         1.098964         1.262744
 C        -2.959966        -0.248973         0.698288
 C        -3.246154        -1.626978         1.415535
 C        -2.293295        -2.196639         2.381426
 O        -0.951260        -2.524107         2.077044
 C        -1.169860        -1.384079         2.873669
 C        -0.761326        -0.031297         2.212291
 H        -0.998044         0.130874        -0.944067
 H        -3.152002         1.255169         2.303024
 H        -3.247851         1.888360         0.497662
 H        -3.322462        -0.355534        -0.305438
 H        -4.189242        -1.444258         1.810029
 H        -3.346765        -2.408985         0.650158
 H        -2.658458        -2.907120         3.187637
 H        -0.735489        -1.506859         3.884617
 H        -0.943897         0.816490         2.873778
 H         0.304697        -0.068686         1.965989
