19
Iteration:  3890
 O        -0.954198         0.978326        -0.090598
 C        -1.711848         0.397403         0.969435
 C        -3.092040         0.982179         1.150765
 C        -2.859201        -0.415196         0.503669
 C        -3.292481        -1.623471         1.416434
 C        -2.269023        -2.072495         2.548547
 O        -1.038046        -2.583274         2.097066
 C        -1.121632        -1.281116         2.889325
 C        -0.724586        -0.121500         2.066366
 H        -0.975025         1.963114         0.050054
 H        -3.543801         1.097267         2.213162
 H        -3.178335         1.806733         0.470242
 H        -3.083823        -0.499345        -0.540192
 H        -4.295597        -1.464175         1.861824
 H        -3.301076        -2.480093         0.757929
 H        -2.742532        -2.761302         3.268978
 H        -0.524975        -1.438736         3.824253
 H        -0.372106         0.658857         2.691914
 H         0.146481        -0.505608         1.579043
