19
Iteration:  3216charge 0 multiplicity 1
 O        -0.850136         0.969397        -0.046066
 C        -1.699973         0.339975         0.958418
 C        -3.050117         1.018507         1.128265
 C        -2.924674        -0.431541         0.640295
 C        -3.326746        -1.559812         1.502160
 C        -2.256043        -2.084206         2.504495
 O        -1.022570        -2.633235         1.930274
 C        -1.056594        -1.330122         2.834872
 C        -0.848177        -0.013912         2.144364
 H        -0.907560         0.422638        -0.823194
 H        -3.499090         1.478085         2.046116
 H        -3.302318         1.786623         0.422794
 H        -2.990448        -0.421432        -0.425935
 H        -4.193886        -1.289126         2.119167
 H        -3.680057        -2.401280         0.845896
 H        -2.763612        -2.648878         3.297357
 H        -0.411373        -1.310897         3.751848
 H        -1.133035         0.711028         2.946022
 H         0.203610         0.113868         1.932021
