19
Iteration:  1851charge 0 multiplicity 1
 O        -1.129314         1.169729        -0.182868
 C        -1.581464         0.385737         0.904008
 C        -3.001503         0.983380         1.400796
 C        -2.913491        -0.361088         0.616228
 C        -3.111539        -1.775237         1.188116
 C        -2.456423        -1.953322         2.494673
 O        -1.109359        -2.639919         2.436938
 C        -1.191678        -1.278299         2.808410
 C        -0.562032        -0.201643         1.876399
 H        -0.280510         0.798236        -0.407242
 H        -3.225077         0.965222         2.492962
 H        -3.451657         1.901343         1.034269
 H        -3.156675        -0.433684        -0.482815
 H        -4.199260        -1.970483         1.243908
 H        -2.824185        -2.550112         0.515787
 H        -2.992392        -2.440524         3.295001
 H        -1.006192        -1.039552         3.876210
 H        -0.018935         0.464992         2.507913
 H         0.184778        -0.668030         1.220419
