19
Iteration:  4298
 O        -1.148570         1.187902        -0.254419
 C        -1.581993         0.437680         0.824705
 C        -2.952355         0.832197         1.415157
 C        -2.854211        -0.366192         0.585519
 C        -3.147554        -1.838584         1.203433
 C        -2.450008        -1.986541         2.519380
 O        -1.159835        -2.730554         2.402228
 C        -1.104298        -1.238798         2.859017
 C        -0.640145        -0.071387         1.915368
 H        -0.342580         1.592989         0.170477
 H        -3.061174         0.627903         2.514347
 H        -3.181089         1.847630         1.149925
 H        -3.145453        -0.303471        -0.477780
 H        -4.253356        -1.808749         1.484038
 H        -3.025870        -2.558120         0.418425
 H        -2.979854        -2.332790         3.376695
 H        -0.872035        -0.998298         3.962575
 H        -0.333030         0.804276         2.623874
 H         0.287781        -0.322549         1.356025
