19
Iteration:  3538charge 0 multiplicity 1
 O        -1.048877         1.092743        -0.168737
 C        -1.631847         0.418577         0.979070
 C        -3.099875         0.977065         1.263518
 C        -2.848929        -0.409513         0.551670
 C        -3.194520        -1.639517         1.270619
 C        -2.388987        -2.005607         2.516194
 O        -1.051898        -2.689022         2.358769
 C        -1.104076        -1.295276         2.746179
 C        -0.625727        -0.211556         1.982955
 H        -0.948250         2.035386         0.127734
 H        -3.528333         0.948782         2.226566
 H        -3.719568         1.666994         0.662304
 H        -2.994621        -0.278554        -0.600185
 H        -4.211725        -1.514432         1.572393
 H        -3.284377        -2.644778         0.828917
 H        -2.832970        -2.488785         3.382494
 H        -0.864138        -1.277744         3.770117
 H        -0.151950         0.617455         2.626349
 H         0.280545        -0.448281         1.459131
