19
Iteration:  2266
 O        -0.944844         0.899802        -0.134344
 C        -1.641724         0.360397         0.983678
 C        -2.958501         1.091739         1.125562
 C        -2.870283        -0.416377         0.702949
 C        -3.409519        -1.572670         1.579063
 C        -2.290911        -2.106804         2.453280
 O        -1.035263        -2.478966         1.888114
 C        -1.102249        -1.412309         2.777269
 C        -0.804012        -0.024382         2.162249
 H        -0.205965         0.290961        -0.210691
 H        -3.452749         1.213592         2.110379
 H        -3.504511         1.868282         0.492534
 H        -3.037096        -0.542407        -0.395497
 H        -4.239823        -1.389056         2.269197
 H        -3.717764        -2.410231         0.871499
 H        -2.513684        -2.792898         3.350869
 H        -0.620149        -1.526112         3.770935
 H        -0.966555         0.570058         3.106208
 H         0.270974         0.044294         1.968948
