19
Iteration:   117charge 0 multiplicity 1
 O        -0.888131         1.015452        -0.050319
 C        -1.718815         0.315040         0.960339
 C        -3.189219         0.742377         0.873318
 C        -2.843020        -0.605446         0.459720
 C        -3.199736        -1.719413         1.382169
 C        -2.280245        -2.117094         2.521152
 O        -0.895349        -2.353740         2.233748
 C        -1.200562        -1.117560         2.994627
 C        -0.889361         0.140458         2.204870
 H        -0.524016         0.333316        -0.612188
 H        -3.590471         0.962803         1.849811
 H        -3.312097         1.497046         0.100852
 H        -2.824116        -0.892230        -0.716569
 H        -4.169392        -1.412234         1.812523
 H        -3.525582        -2.619073         0.773811
 H        -2.728377        -2.834010         3.265331
 H        -0.919309        -1.268079         4.029060
 H        -0.810641         1.174452         2.761795
 H         0.200195        -0.087844         1.871532
