19
Iteration:  1900
 O        -0.997704         1.124299        -0.121637
 C        -1.566457         0.371464         0.918478
 C        -2.992875         0.764725         1.362854
 C        -2.866793        -0.464963         0.535153
 C        -3.313471        -1.654885         1.322892
 C        -2.396134        -1.967279         2.488221
 O        -1.138036        -2.606562         2.340324
 C        -1.119864        -1.222585         2.780786
 C        -0.605244        -0.165667         1.853762
 H        -0.835733         2.078958         0.172392
 H        -3.366892         0.863029         2.399207
 H        -3.380864         1.608020         0.790886
 H        -3.190382        -0.420013        -0.451417
 H        -4.371891        -1.671444         1.579081
 H        -3.234148        -2.553996         0.657712
 H        -2.915265        -2.120846         3.460170
 H        -0.816848        -1.278609         3.815010
 H        -0.295302         0.696007         2.527720
 H         0.312254        -0.329101         1.222865
