19
Iteration:  2582charge 0 multiplicity 1
 O        -1.093068         1.186705        -0.061313
 C        -1.554640         0.329033         0.977613
 C        -2.930333         0.762218         1.325154
 C        -2.897716        -0.513501         0.492160
 C        -3.346426        -1.721266         1.280597
 C        -2.414000        -1.939470         2.574511
 O        -1.131880        -2.512308         2.217678
 C        -1.167645        -1.206082         2.779586
 C        -0.542582        -0.126575         1.894353
 H        -0.184311         0.807488        -0.306776
 H        -3.314498         0.706015         2.368806
 H        -3.217863         1.776181         1.197992
 H        -3.098999        -0.419266        -0.570832
 H        -4.258387        -1.378685         1.718384
 H        -3.400211        -2.640035         0.714641
 H        -2.842734        -2.474245         3.563462
 H        -0.753213        -1.249402         3.756805
 H        -0.142581         0.711022         2.603307
 H         0.444411        -0.542744         1.380365
