19
Iteration:   460
 O        -0.921557         1.079209        -0.156833
 C        -1.663236         0.480535         0.833489
 C        -3.077766         0.716389         1.202596
 C        -2.852524        -0.584384         0.477081
 C        -3.228262        -1.913296         1.251754
 C        -2.300852        -2.069476         2.456101
 O        -0.967449        -2.491080         2.531618
 C        -1.353565        -1.043408         2.946981
 C        -0.653068         0.026371         1.944533
 H        -1.380415         1.916494        -0.469571
 H        -3.232574         0.646962         2.321442
 H        -3.582642         1.589059         0.648295
 H        -3.174566        -0.585431        -0.582123
 H        -4.214639        -1.752386         1.649913
 H        -3.053594        -2.782933         0.617527
 H        -2.849587        -2.598470         3.358914
 H        -1.194707        -0.792624         4.016753
 H        -0.391819         0.988483         2.458781
 H         0.261660        -0.301574         1.458690
