19
Iteration:  1615
 O        -0.957646         1.046828        -0.204013
 C        -1.667796         0.384992         0.899304
 C        -2.999256         0.914328         1.260042
 C        -2.916105        -0.408246         0.532185
 C        -3.238277        -1.685917         1.269928
 C        -2.364251        -2.059519         2.526870
 O        -0.957221        -2.572305         2.300762
 C        -1.227302        -1.198908         2.983202
 C        -0.747736        -0.136723         1.940620
 H        -0.379575         1.745548         0.242910
 H        -3.369258         0.681489         2.343327
 H        -3.474333         1.727998         0.751302
 H        -3.060189        -0.477532        -0.559504
 H        -4.305023        -1.798624         1.569026
 H        -3.241050        -2.578828         0.514667
 H        -2.885147        -2.723387         3.358778
 H        -1.041945        -1.032899         4.035911
 H        -0.464822         0.805860         2.556500
 H         0.193718        -0.569498         1.508829
