19
Iteration:  3464charge 0 multiplicity 1
 O        -0.971081         0.795813        -0.176419
 C        -1.606314         0.413863         0.983250
 C        -3.054425         0.990663         1.314373
 C        -2.903604        -0.346524         0.564932
 C        -3.232224        -1.676207         1.327497
 C        -2.321515        -2.050087         2.395821
 O        -1.058485        -2.533757         2.108823
 C        -1.122375        -1.265841         2.874613
 C        -0.709552        -0.033968         2.165255
 H        -1.235131         1.702508        -0.367912
 H        -3.329029         0.842539         2.362859
 H        -3.602179         1.914543         0.914526
 H        -3.322742        -0.325702        -0.485326
 H        -4.332686        -1.644188         1.734899
 H        -3.230966        -2.500027         0.452456
 H        -2.759531        -2.506858         3.332636
 H        -0.780452        -1.432313         3.900577
 H        -0.401317         0.786722         2.800199
 H         0.276172        -0.328608         1.740374
