19
Iteration:   262charge 0 multiplicity 1
 O        -1.133604         1.257215        -0.127240
 C        -1.663396         0.326118         0.847234
 C        -3.057330         0.782106         1.140405
 C        -2.842045        -0.550731         0.472243
 C        -3.065389        -1.912947         1.113240
 C        -2.405935        -1.970383         2.515375
 O        -1.025384        -2.485857         2.714871
 C        -1.193511        -1.116814         2.926631
 C        -0.653444        -0.118452         1.864104
 H        -0.182054         1.468339        -0.056702
 H        -3.368922         0.784841         2.146784
 H        -3.478879         1.591590         0.467815
 H        -3.303778        -0.528156        -0.460516
 H        -4.149747        -1.939324         1.283910
 H        -2.978620        -2.824279         0.511278
 H        -3.028642        -2.423592         3.330410
 H        -1.073988        -0.723296         3.948878
 H        -0.078963         0.766794         2.339213
 H         0.158364        -0.682384         1.369024
