19
Iteration:  3700
 O        -1.050045         1.204160        -0.151181
 C        -1.657499         0.333298         0.928456
 C        -2.976230         0.770516         1.494503
 C        -2.850490        -0.422976         0.407799
 C        -3.181424        -1.729199         1.193605
 C        -2.410104        -1.985067         2.516385
 O        -1.129351        -2.526505         2.414939
 C        -1.189313        -1.192682         2.847166
 C        -0.622394        -0.213977         1.788497
 H        -0.378183         1.685602         0.327571
 H        -3.201088         0.497393         2.521758
 H        -3.416784         1.658811         1.188052
 H        -3.201795        -0.205758        -0.667076
 H        -4.207355        -1.781861         1.633797
 H        -2.909032        -2.564245         0.614978
 H        -2.883939        -2.455876         3.376110
 H        -0.911591        -1.019879         3.887621
 H        -0.109861         0.513230         2.285444
 H         0.134667        -0.791548         1.311587
