19
Iteration:  4902charge 0 multiplicity 1
 O        -0.925657         0.961657        -0.167375
 C        -1.656597         0.395228         0.887445
 C        -3.010224         0.927969         1.288957
 C        -2.939366        -0.444391         0.617051
 C        -3.358424        -1.691141         1.371657
 C        -2.335381        -2.010585         2.488955
 O        -0.997177        -2.562077         2.071179
 C        -1.100902        -1.320449         2.874246
 C        -0.692272        -0.028499         2.094036
 H        -0.861067         1.949469        -0.104423
 H        -3.317280         1.044392         2.379966
 H        -3.484600         1.600467         0.586997
 H        -3.405491        -0.441352        -0.323891
 H        -4.290420        -1.768143         1.924833
 H        -3.329301        -2.388865         0.533413
 H        -2.722285        -2.633872         3.275154
 H        -0.824534        -1.560555         3.956986
 H        -0.848446         0.781844         2.854403
 H         0.377258         0.170356         1.796241
