19
Iteration:   862charge 0 multiplicity 1
 O        -0.916352         0.768442        -0.199443
 C        -1.730899         0.439589         0.909477
 C        -3.122189         1.022279         1.080183
 C        -2.893824        -0.463413         0.581666
 C        -3.280668        -1.660350         1.345057
 C        -2.181365        -2.158973         2.477253
 O        -0.863943        -2.465029         2.162626
 C        -1.193760        -1.226692         3.010047
 C        -0.870648        -0.004703         2.225659
 H        -0.838815         1.731941        -0.256087
 H        -3.646335         1.141091         1.994922
 H        -3.456283         1.716485         0.258362
 H        -3.183799        -0.405078        -0.481789
 H        -4.214798        -1.402921         1.859278
 H        -3.486871        -2.483268         0.628402
 H        -2.756959        -2.844386         3.108221
 H        -0.739331        -1.303120         4.149483
 H        -0.645171         0.914736         2.778113
 H         0.146732        -0.210466         1.814890
