19
Iteration:  2772
 O        -0.993199         1.193891        -0.044505
 C        -1.698077         0.409048         0.919778
 C        -2.969057         0.977159         1.293823
 C        -2.855101        -0.428682         0.568803
 C        -3.286179        -1.696273         1.310655
 C        -2.394596        -2.029536         2.584242
 O        -1.046840        -2.630511         2.315793
 C        -1.149348        -1.303000         2.757942
 C        -0.692962        -0.148850         1.840791
 H        -0.299868         0.652890        -0.397084
 H        -3.381093         0.868804         2.354312
 H        -3.335048         1.688235         0.581388
 H        -3.195266        -0.540779        -0.500148
 H        -4.251483        -1.539893         1.719562
 H        -3.089275        -2.536329         0.661042
 H        -2.895381        -2.676348         3.378627
 H        -0.869135        -1.184409         3.826959
 H        -0.215608         0.746360         2.300766
 H         0.116275        -0.749687         1.247756
