19
Iteration:   790
 O        -0.909550         0.801658        -0.164411
 C        -1.674356         0.330345         0.966792
 C        -3.117554         0.902297         1.033274
 C        -2.728872        -0.567405         0.528268
 C        -3.367756        -1.628600         1.495602
 C        -2.239716        -2.133018         2.578773
 O        -0.942875        -2.270258         1.936641
 C        -1.163765        -1.251581         2.932900
 C        -0.960838         0.071636         2.268697
 H        -0.011244         0.980244         0.094233
 H        -3.685974         0.939740         1.958511
 H        -3.430791         1.661370         0.294036
 H        -2.700288        -0.731544        -0.559510
 H        -4.314696        -1.298450         2.038048
 H        -3.629536        -2.510005         0.875470
 H        -2.486177        -2.844139         3.404308
 H        -0.707584        -1.428896         3.811353
 H        -1.026035         0.950411         2.911539
 H         0.071414         0.187313         1.972003
