19
Iteration:  2947
 O        -0.920584         1.000893        -0.090345
 C        -1.629910         0.355918         0.920495
 C        -3.035063         0.961325         1.248551
 C        -2.946979        -0.430733         0.594094
 C        -3.309459        -1.671261         1.435504
 C        -2.321193        -2.066277         2.553406
 O        -1.083696        -2.488238         1.974986
 C        -1.123217        -1.348645         2.824284
 C        -0.682902        -0.003651         2.112271
 H        -0.538393         0.249980        -0.615456
 H        -3.347995         1.051248         2.282588
 H        -3.107556         1.957578         0.710409
 H        -3.234413        -0.583339        -0.431757
 H        -4.289957        -1.527995         2.051881
 H        -3.511963        -2.498748         0.766823
 H        -2.833373        -2.749661         3.169118
 H        -0.713717        -1.267095         3.843399
 H        -0.725386         0.744724         2.902990
 H         0.359824        -0.043020         1.714367
