19
Iteration:  1429charge 0 multiplicity 1
 O        -0.912760         0.857287        -0.170361
 C        -1.671620         0.401616         0.962859
 C        -3.106105         0.862314         1.068564
 C        -2.703803        -0.541981         0.502653
 C        -3.309337        -1.625052         1.482918
 C        -2.288341        -2.082094         2.522617
 O        -1.087702        -2.385269         1.967356
 C        -1.090934        -1.315147         2.883280
 C        -0.883023         0.086751         2.268353
 H        -0.148935         1.190747         0.382799
 H        -3.603070         0.969232         2.040383
 H        -3.615448         1.752801         0.604507
 H        -2.635253        -0.761383        -0.548244
 H        -4.171550        -1.251687         2.046326
 H        -3.451761        -2.655257         1.110020
 H        -2.777511        -2.766612         3.347295
 H        -0.478359        -1.342253         3.727115
 H        -1.219191         0.780013         2.986200
 H         0.150468         0.185497         2.057767
