19
Iteration:  4474charge 0 multiplicity 1
 O        -1.041592         1.169518        -0.235279
 C        -1.666241         0.437342         0.925449
 C        -3.042113         0.960567         1.385323
 C        -2.988573        -0.352305         0.612903
 C        -3.093632        -1.771665         1.227058
 C        -2.465797        -2.040171         2.522883
 O        -1.047608        -2.672313         2.458171
 C        -1.205733        -1.322395         2.790101
 C        -0.596477        -0.169989         1.860148
 H        -0.368006         1.911730        -0.126923
 H        -3.132008         1.033935         2.435394
 H        -3.361454         1.940872         0.902908
 H        -3.064366        -0.316275        -0.472503
 H        -4.154647        -2.193936         1.207996
 H        -2.557370        -2.493350         0.601631
 H        -3.045889        -2.392654         3.311068
 H        -0.839707        -1.211476         3.789792
 H        -0.143800         0.663528         2.404953
 H         0.189577        -0.704575         1.317135
