19
Iteration:  2053
 O        -0.952122         0.996450        -0.126638
 C        -1.643025         0.429043         0.931446
 C        -2.987247         0.909244         1.135391
 C        -2.894810        -0.395208         0.549232
 C        -3.311560        -1.531909         1.466923
 C        -2.259979        -2.070416         2.561510
 O        -1.105946        -2.641938         2.075811
 C        -1.060525        -1.392874         2.837085
 C        -0.773800        -0.070241         2.112618
 H        -1.468989         1.852614        -0.079878
 H        -3.399086         1.107251         2.142855
 H        -3.326881         1.735889         0.485474
 H        -2.894199        -0.589540        -0.579133
 H        -4.045837        -1.088375         2.159497
 H        -3.655100        -2.393730         0.891458
 H        -2.936161        -2.617138         3.275987
 H        -0.424343        -1.561698         3.724610
 H        -0.564025         0.743219         2.750531
 H         0.222043        -0.309287         1.723492
