19
Iteration:   317
 O        -1.073706         1.127105        -0.284853
 C        -1.664581         0.469243         0.909399
 C        -3.111653         0.768504         1.326864
 C        -2.810968        -0.540046         0.440126
 C        -2.988051        -1.914166         1.083111
 C        -2.360947        -1.902252         2.469556
 O        -1.103885        -2.569243         2.750470
 C        -1.270169        -1.078552         2.897195
 C        -0.619424        -0.139433         1.893985
 H        -1.074808         2.115026        -0.445048
 H        -3.191102         0.650960         2.395307
 H        -3.701540         1.611028         0.923090
 H        -3.073040        -0.312336        -0.515183
 H        -4.034717        -2.143929         1.172000
 H        -2.438834        -2.672189         0.537342
 H        -3.141402        -2.253600         3.207975
 H        -1.268332        -0.768013         3.961361
 H        -0.098975         0.674222         2.522372
 H         0.174401        -0.695708         1.377429
