19
Iteration:   614
 O        -0.891197         0.830751        -0.200646
 C        -1.663528         0.392626         0.921309
 C        -3.168103         0.890013         0.939370
 C        -2.779024        -0.522896         0.527272
 C        -3.210286        -1.702476         1.442319
 C        -2.325278        -2.033453         2.599085
 O        -0.940851        -2.449785         2.101278
 C        -1.058154        -1.284469         2.891592
 C        -0.955176         0.133443         2.329797
 H        -0.882373         1.779797        -0.110159
 H        -3.603882         0.954202         1.977066
 H        -3.634656         1.502461         0.226404
 H        -3.076489        -0.725086        -0.529437
 H        -4.270190        -1.645584         1.779208
 H        -3.205623        -2.615763         0.812561
 H        -2.751098        -2.669463         3.444711
 H        -0.572804        -1.295813         3.830794
 H        -1.420653         0.774095         2.999769
 H         0.061543         0.458244         2.160759
