19
Iteration:  2752charge 0 multiplicity 1
 O        -1.043816         1.278271        -0.068502
 C        -1.630131         0.467302         0.959685
 C        -3.155922         0.889970         1.190514
 C        -2.892425        -0.352037         0.489038
 C        -3.210908        -1.678065         1.390124
 C        -2.306923        -2.017309         2.542671
 O        -1.133002        -2.718006         2.324180
 C        -1.123482        -1.264445         2.891959
 C        -0.565420        -0.312671         1.865706
 H        -0.341196         0.805145        -0.596215
 H        -3.410479         1.034138         2.296952
 H        -3.395463         1.764820         0.525998
 H        -3.012450        -0.579107        -0.608688
 H        -4.102322        -1.417788         1.873018
 H        -3.195628        -2.480290         0.612821
 H        -3.018358        -2.350798         3.296425
 H        -0.774326        -1.245054         3.983226
 H        -0.004400         0.501463         2.331252
 H         0.102039        -0.692774         1.066730
