19
Iteration:  1426
 O        -0.920823         0.873758        -0.161716
 C        -1.663997         0.349862         0.964486
 C        -3.112478         0.845371         1.050435
 C        -2.694517        -0.508465         0.519020
 C        -3.309574        -1.615271         1.488601
 C        -2.313877        -2.106651         2.538628
 O        -1.072086        -2.377995         1.965943
 C        -1.077644        -1.277609         2.866663
 C        -0.900281         0.074420         2.270849
 H        -0.156446         1.178473         0.317860
 H        -3.579900         1.036880         2.065094
 H        -3.540974         1.652705         0.557244
 H        -2.573576        -0.725730        -0.552549
 H        -4.153034        -1.293793         2.006332
 H        -3.607832        -2.608031         1.087011
 H        -2.785348        -2.718367         3.278543
 H        -0.410932        -1.388405         3.747798
 H        -1.221394         0.784828         3.034575
 H         0.187764         0.100552         2.008799
