19
Iteration:  2586
 O        -1.057101         1.200354        -0.083736
 C        -1.545441         0.339554         0.966687
 C        -2.976460         0.771840         1.370397
 C        -2.923476        -0.492308         0.462986
 C        -3.323432        -1.747947         1.275820
 C        -2.456122        -1.942541         2.594450
 O        -1.124690        -2.531828         2.232001
 C        -1.146535        -1.232526         2.757459
 C        -0.536084        -0.122006         1.944635
 H        -0.287134         0.839130        -0.495359
 H        -3.193429         0.652606         2.416738
 H        -3.159287         1.873793         1.018449
 H        -3.062739        -0.341390        -0.588424
 H        -4.335875        -1.465293         1.675534
 H        -3.470464        -2.759292         0.760922
 H        -2.722040        -2.398198         3.578144
 H        -0.758737        -1.176851         3.791168
 H        -0.130091         0.692897         2.502298
 H         0.312316        -0.405252         1.317794
