19
Iteration:  1010
 O        -1.068201         1.060036        -0.206362
 C        -1.648706         0.384481         0.895725
 C        -2.997953         0.781850         1.516433
 C        -2.938258        -0.453006         0.568442
 C        -2.978999        -1.950409         1.001287
 C        -2.468425        -1.933113         2.501607
 O        -1.076556        -2.526955         2.635093
 C        -1.270128        -1.072789         2.772106
 C        -0.620405        -0.111891         1.814306
 H        -0.648719         1.814871         0.200281
 H        -3.113193         0.855322         2.619611
 H        -3.527191         1.620415         0.905554
 H        -3.279896        -0.150546        -0.443383
 H        -4.045988        -2.291651         0.900225
 H        -2.339187        -2.505831         0.307593
 H        -3.164822        -2.082018         3.373107
 H        -1.213558        -0.692419         3.777019
 H        -0.078613         0.806016         2.308722
 H         0.198443        -0.558791         1.181564
