19
Iteration:  4018
 O        -0.986413         0.964032        -0.213210
 C        -1.598359         0.338557         0.901276
 C        -2.952113         0.993643         1.167017
 C        -2.882272        -0.448989         0.572940
 C        -3.351890        -1.607145         1.542074
 C        -2.338584        -2.192157         2.467310
 O        -0.902181        -2.443039         2.003674
 C        -1.243208        -1.332003         2.842522
 C        -0.837559        -0.019276         2.213786
 H        -0.204418         1.359405         0.149414
 H        -3.248684         1.137963         2.263522
 H        -3.294862         1.853134         0.555158
 H        -3.187237        -0.522338        -0.437171
 H        -4.205204        -1.396023         2.236851
 H        -3.816504        -2.569962         1.057566
 H        -2.663819        -3.069445         3.116002
 H        -0.755174        -1.330633         3.830869
 H        -0.778203         0.798765         3.039937
 H         0.224979        -0.296337         1.858803
