19
Iteration:  3572charge 0 multiplicity 1
 O        -1.057756         1.210495        -0.135544
 C        -1.634811         0.375104         0.931456
 C        -3.050953         0.868275         1.329169
 C        -2.899353        -0.389661         0.454472
 C        -3.226293        -1.785638         1.285696
 C        -2.408541        -1.969377         2.599530
 O        -1.150417        -2.576860         2.314122
 C        -1.124484        -1.283278         2.858054
 C        -0.519795        -0.177362         1.891531
 H        -0.292162         1.734727         0.231628
 H        -3.352160         0.628159         2.365085
 H        -3.596452         1.591632         0.753381
 H        -3.009699        -0.413448        -0.653788
 H        -4.274711        -1.755738         1.307576
 H        -2.923900        -2.727452         0.755323
 H        -2.926200        -2.415347         3.453309
 H        -0.586171        -1.218628         3.732078
 H        -0.065973         0.711342         2.487217
 H         0.122527        -0.831843         1.332721
