19
Iteration:  1829
 O        -0.923227         1.106546        -0.083626
 C        -1.694872         0.379666         0.923608
 C        -2.924035         0.905706         1.496119
 C        -2.997718        -0.351199         0.581650
 C        -3.153643        -1.748643         1.110349
 C        -2.358494        -2.016067         2.428570
 O        -1.083573        -2.585638         2.494862
 C        -1.169199        -1.161137         2.828208
 C        -0.709717        -0.202519         1.776939
 H        -1.002903         0.323455        -0.717164
 H        -3.258882         0.895919         2.560516
 H        -3.435525         1.708599         1.057096
 H        -3.517124        -0.127200        -0.393772
 H        -4.219246        -2.032787         1.185201
 H        -2.835721        -2.409317         0.326483
 H        -2.949384        -2.358365         3.290607
 H        -0.976259        -0.831638         3.859200
 H        -0.193053         0.611942         2.247724
 H        -0.003905        -0.686741         1.091994
