19
Iteration:  3405charge 0 multiplicity 1
 O        -0.882376         1.012860        -0.166826
 C        -1.638641         0.409339         0.941942
 C        -3.087592         0.923215         1.142676
 C        -2.811910        -0.473606         0.656970
 C        -3.318503        -1.597557         1.530927
 C        -2.297433        -2.135239         2.502240
 O        -1.086976        -2.566255         1.972351
 C        -1.147110        -1.291427         2.843471
 C        -0.799096         0.025525         2.137873
 H        -0.065063         1.442997         0.225795
 H        -3.686953         0.995118         2.071414
 H        -3.349437         1.598742         0.390808
 H        -3.100673        -0.762375        -0.333498
 H        -4.165435        -1.377126         2.181289
 H        -3.540489        -2.597863         1.001660
 H        -2.877000        -2.910453         3.050433
 H        -0.528071        -1.418737         3.734204
 H        -0.722125         0.957158         2.768496
 H         0.152290        -0.302890         1.755334
