19
Iteration:  2660charge 0 multiplicity 1
 O        -1.097817         1.026195        -0.165856
 C        -1.598152         0.365544         0.913158
 C        -2.974384         1.025488         1.502435
 C        -2.970811        -0.327383         0.682454
 C        -3.101697        -1.696828         1.121757
 C        -2.343437        -2.072841         2.370602
 O        -1.052759        -2.570568         2.407036
 C        -1.250893        -1.246745         2.832973
 C        -0.653538        -0.180767         1.905979
 H        -0.648585         0.306190        -0.700200
 H        -3.143580         1.194190         2.518713
 H        -3.274880         1.876773         0.848206
 H        -3.374574         0.017778        -0.228456
 H        -4.126723        -1.904757         1.387394
 H        -2.924647        -2.327506         0.276025
 H        -2.936248        -2.467128         3.295451
 H        -1.149673        -1.140698         3.862297
 H        -0.065944         0.698804         2.301188
 H         0.167462        -0.846370         1.455080
