19
Iteration:   454
 O        -0.938478         1.133338        -0.205154
 C        -1.628652         0.510246         0.835740
 C        -3.057688         0.714581         1.213175
 C        -2.814512        -0.629783         0.526213
 C        -3.215373        -1.899287         1.245738
 C        -2.295637        -2.058468         2.455477
 O        -0.968123        -2.520955         2.549920
 C        -1.345445        -1.024452         2.931362
 C        -0.743999        -0.023490         1.948279
 H        -1.318442         1.985025        -0.410882
 H        -3.139077         0.768965         2.260713
 H        -3.488648         1.558700         0.678495
 H        -3.119814        -0.667112        -0.558150
 H        -4.247104        -1.834229         1.718703
 H        -3.145776        -2.823326         0.639819
 H        -2.841938        -2.457599         3.230734
 H        -1.323586        -0.873760         3.993564
 H        -0.437959         0.966526         2.405356
 H         0.195520        -0.401947         1.479027
