19
Iteration:  2569
 O        -1.111448         1.157613        -0.048706
 C        -1.616309         0.295536         0.892190
 C        -2.953856         0.809677         1.351001
 C        -2.785801        -0.495562         0.557051
 C        -3.314137        -1.627961         1.392191
 C        -2.410780        -1.964235         2.445526
 O        -1.140368        -2.508756         2.182505
 C        -1.128613        -1.183305         2.843828
 C        -0.574489        -0.179609         1.923604
 H        -0.186693         1.021885        -0.175560
 H        -3.200732         0.437681         2.376341
 H        -3.257511         1.554043         0.651719
 H        -3.049811        -0.540854        -0.544771
 H        -4.374389        -1.608512         1.674223
 H        -3.380301        -2.508137         0.781353
 H        -2.972411        -2.456520         3.291458
 H        -0.829286        -1.127541         3.926178
 H        -0.224889         0.788611         2.446409
 H         0.307690        -0.695243         1.386822
