19
Iteration:  2028charge 0 multiplicity 1
 O        -0.875715         0.936526        -0.130626
 C        -1.644952         0.422171         0.960273
 C        -3.047932         0.954968         1.239334
 C        -2.872171        -0.446791         0.630005
 C        -3.395472        -1.684275         1.465957
 C        -2.369161        -2.092644         2.548482
 O        -1.051801        -2.489178         2.057106
 C        -1.148036        -1.312656         2.736567
 C        -0.625193        -0.048471         2.015047
 H        -0.646099         1.682731         0.435379
 H        -3.710932         0.983696         2.237050
 H        -3.368588         1.757657         0.596732
 H        -3.133345        -0.604436        -0.399617
 H        -4.314009        -1.317100         2.036884
 H        -3.557955        -2.442617         0.741993
 H        -2.776493        -2.589671         3.353857
 H        -0.976739        -1.376252         3.855190
 H        -0.239557         0.783597         2.582048
 H         0.208059        -0.455147         1.398187
