19
Iteration:  3735
 O        -1.097463         1.213375        -0.170335
 C        -1.662553         0.348604         0.960256
 C        -2.958197         0.851574         1.393911
 C        -2.796278        -0.440000         0.529644
 C        -3.129890        -1.743209         1.262236
 C        -2.364123        -1.985058         2.484259
 O        -1.198391        -2.635491         2.402394
 C        -1.152701        -1.193020         2.784619
 C        -0.550867        -0.227223         1.875342
 H        -1.206124         2.056872         0.276209
 H        -3.397615         0.876960         2.419368
 H        -3.434681         1.545213         0.631041
 H        -2.913718        -0.173113        -0.512715
 H        -4.236870        -1.752900         1.482718
 H        -3.123124        -2.637034         0.627517
 H        -3.041217        -2.343793         3.299722
 H        -1.071452        -1.106293         3.885049
 H        -0.199422         0.626335         2.361188
 H         0.136609        -0.589367         1.156181
