19
Iteration:  1733charge 0 multiplicity 1
 O        -1.051072         1.230774        -0.021834
 C        -1.721715         0.362543         0.823535
 C        -3.043654         0.843014         1.337196
 C        -2.848648        -0.454324         0.478488
 C        -3.117735        -1.744557         1.195817
 C        -2.400276        -1.905722         2.576561
 O        -1.152172        -2.613212         2.447423
 C        -1.135570        -1.172939         2.815285
 C        -0.611072        -0.264780         1.833016
 H        -0.114536         0.975305        -0.117967
 H        -3.138685         0.764378         2.491535
 H        -3.449055         1.720440         0.911543
 H        -3.175159        -0.363382        -0.586740
 H        -4.214791        -1.771939         1.236980
 H        -2.892694        -2.637493         0.636164
 H        -2.840145        -2.194649         3.470389
 H        -0.983804        -0.909347         3.870824
 H        -0.012355         0.514058         2.331564
 H         0.010155        -0.838805         1.055109
