19
Iteration:  2527
 O        -0.966370         1.076148        -0.146814
 C        -1.681620         0.397598         0.943598
 C        -3.013783         1.053893         1.265782
 C        -2.949841        -0.355850         0.661065
 C        -3.256770        -1.708165         1.337065
 C        -2.299694        -2.095182         2.528193
 O        -1.063323        -2.699167         2.258297
 C        -1.099283        -1.332189         2.760971
 C        -0.713027         0.012653         1.968271
 H        -0.540072         0.417306        -0.770674
 H        -3.169058         1.250071         2.380591
 H        -3.424161         1.852114         0.650671
 H        -3.181955        -0.361976        -0.444916
 H        -4.321770        -1.828186         1.559861
 H        -3.074848        -2.487064         0.543155
 H        -2.977684        -2.576747         3.376648
 H        -0.939771        -1.371558         3.828734
 H        -0.633831         0.742414         2.854075
 H         0.310054        -0.247268         1.480617
