19
Iteration:  1435
 O        -0.883539         0.829153        -0.160444
 C        -1.689016         0.491053         0.968613
 C        -3.104080         0.918788         1.087385
 C        -2.770835        -0.612736         0.503834
 C        -3.284532        -1.646520         1.480474
 C        -2.290775        -2.029833         2.532975
 O        -1.081358        -2.430077         1.957381
 C        -1.114950        -1.337315         2.891052
 C        -0.868499         0.106176         2.246508
 H        -0.124589         1.276486         0.216029
 H        -3.554786         0.624991         2.083235
 H        -3.511033         1.737311         0.534027
 H        -2.850660        -0.806285        -0.588185
 H        -4.209431        -1.269498         1.974005
 H        -3.329218        -2.623393         0.951310
 H        -2.589229        -2.735242         3.237762
 H        -0.596454        -1.452936         3.918257
 H        -1.173301         0.889020         3.040184
 H         0.251976         0.388662         2.154909
