19
Iteration:  2775
 O        -0.992225         1.183700        -0.054094
 C        -1.673463         0.407880         0.921704
 C        -2.953487         0.961203         1.332270
 C        -2.870461        -0.430613         0.551066
 C        -3.297659        -1.724440         1.327595
 C        -2.419356        -2.020646         2.581955
 O        -1.031837        -2.607784         2.305088
 C        -1.147214        -1.310299         2.771123
 C        -0.700194        -0.154744         1.843620
 H        -0.275768         0.618754        -0.412264
 H        -3.294024         0.991678         2.364492
 H        -3.341162         1.709623         0.552517
 H        -3.146899        -0.507288        -0.490671
 H        -4.303916        -1.556153         1.626786
 H        -3.107244        -2.539879         0.584348
 H        -2.925863        -2.606533         3.276371
 H        -0.858498        -1.167052         3.861870
 H        -0.339196         0.759294         2.303258
 H         0.119885        -0.558614         1.193509
