19
Iteration:  2392
 O        -0.952136         0.940556        -0.163134
 C        -1.687661         0.518623         0.995978
 C        -3.047417         0.963008         1.067680
 C        -2.917916        -0.417440         0.653626
 C        -3.304838        -1.620840         1.519029
 C        -2.293277        -2.137086         2.525790
 O        -1.096926        -2.615590         1.988615
 C        -1.036588        -1.390306         2.786494
 C        -0.773330         0.027004         2.117634
 H        -0.069853         1.107364         0.119560
 H        -3.552491         1.146611         2.020939
 H        -3.064355         1.819746         0.397605
 H        -2.918327        -0.535990        -0.405639
 H        -4.048658        -1.095845         2.120094
 H        -3.726089        -2.430097         1.003832
 H        -2.615646        -2.635973         3.376458
 H        -0.708365        -1.555055         3.852581
 H        -0.755928         0.580559         3.147588
 H         0.374229         0.168477         1.967024
