19
Iteration:  4757charge 0 multiplicity 1
 O        -0.950280         0.872880        -0.141981
 C        -1.695725         0.345250         1.010024
 C        -3.040304         0.902368         1.279082
 C        -2.892309        -0.452028         0.593498
 C        -3.329389        -1.674130         1.422774
 C        -2.309766        -2.068419         2.392541
 O        -0.967544        -2.377522         1.990246
 C        -1.202103        -1.236335         2.930332
 C        -0.681580        -0.069249         2.090949
 H        -0.871295         1.850201        -0.085294
 H        -3.384114         0.943993         2.296851
 H        -3.259563         1.790297         0.585093
 H        -3.135520        -0.440776        -0.518803
 H        -4.262272        -1.577270         1.889453
 H        -3.378768        -2.644782         0.924903
 H        -2.635538        -2.862240         2.981720
 H        -0.970712        -1.174123         4.011581
 H        -0.463648         0.902939         2.628920
 H         0.266989        -0.593484         1.892763
