19
Iteration:  3939charge 0 multiplicity 1
 O        -0.878497         0.899135        -0.229243
 C        -1.646507         0.389953         0.911196
 C        -2.952844         0.964190         1.274456
 C        -2.911668        -0.393105         0.637378
 C        -3.228387        -1.699398         1.398597
 C        -2.358228        -2.126807         2.540671
 O        -1.032295        -2.477459         1.992393
 C        -1.191653        -1.325926         2.903645
 C        -0.801369         0.024388         2.146422
 H        -1.250666         1.764619        -0.345262
 H        -3.226327         0.930721         2.302309
 H        -3.423427         1.816089         0.754817
 H        -3.205582        -0.520200        -0.423931
 H        -4.183763        -1.515669         1.934355
 H        -3.452959        -2.622372         0.689585
 H        -2.817409        -2.831665         3.269471
 H        -0.812918        -1.481360         3.897583
 H        -0.839540         0.862581         2.911194
 H         0.285356        -0.061257         1.857974
