19
Iteration:  4805charge 0 multiplicity 1
 O        -0.956451         0.900171        -0.245234
 C        -1.693430         0.445300         0.915811
 C        -3.026630         0.994408         1.231554
 C        -2.946288        -0.345642         0.642340
 C        -3.220796        -1.629961         1.355456
 C        -2.269745        -2.098042         2.517715
 O        -1.010760        -2.627928         2.066552
 C        -1.068812        -1.351256         2.836821
 C        -0.852938        -0.015404         2.176841
 H        -0.447630         1.714821        -0.000422
 H        -3.316829         0.913011         2.333708
 H        -3.572269         1.678623         0.636136
 H        -3.311417        -0.520144        -0.325595
 H        -4.271525        -1.589119         1.780706
 H        -3.149290        -2.585623         0.758523
 H        -2.699949        -2.323298         3.562996
 H        -0.532845        -1.478663         3.830147
 H        -1.106534         0.670898         3.023306
 H         0.233412         0.253623         1.943812
