19
Iteration:   239charge 0 multiplicity 1
 O        -1.058455         1.268528        -0.258598
 C        -1.669892         0.448121         0.874341
 C        -3.051413         0.760913         1.232300
 C        -2.724099        -0.522572         0.458156
 C        -3.051239        -1.803919         1.230013
 C        -2.315037        -2.134387         2.539081
 O        -0.979817        -2.525091         2.692183
 C        -1.399854        -1.110595         2.890372
 C        -0.785556        -0.088481         1.885047
 H        -0.523807         0.682480        -0.874169
 H        -3.424135         0.465402         2.152216
 H        -3.509892         1.629552         0.776930
 H        -2.899297        -0.591886        -0.650327
 H        -4.103121        -1.819748         1.431355
 H        -3.025063        -2.671691         0.546329
 H        -2.954872        -2.402273         3.397181
 H        -1.432477        -0.778910         3.912915
 H        -0.234965         0.643631         2.560917
 H         0.088999        -0.535761         1.330356
