19
Iteration:  2885charge 0 multiplicity 1
 O        -0.950957         1.122419        -0.078866
 C        -1.659134         0.407265         0.911773
 C        -3.030048         0.936445         1.203440
 C        -2.898858        -0.447928         0.576703
 C        -3.329825        -1.632804         1.451861
 C        -2.400606        -2.029152         2.498211
 O        -1.035186        -2.635138         2.093621
 C        -1.039322        -1.323242         2.839733
 C        -0.748927        -0.092018         2.043642
 H        -0.301627         0.447768        -0.421558
 H        -3.097322         1.199906         2.293759
 H        -3.254728         1.794242         0.547698
 H        -3.312140        -0.488104        -0.417019
 H        -4.295585        -1.339132         1.882193
 H        -3.606527        -2.498452         0.852968
 H        -2.678288        -2.669210         3.277976
 H        -0.707310        -1.450981         3.916458
 H        -0.548276         0.787462         2.711064
 H         0.262051        -0.307880         1.630677
