19
Iteration:   646
 O        -0.833157         0.789622        -0.074719
 C        -1.719019         0.326357         0.928707
 C        -3.081005         1.024286         0.888256
 C        -2.857610        -0.491420         0.517957
 C        -3.317960        -1.722459         1.530175
 C        -2.232640        -2.215839         2.452285
 O        -0.795411        -2.411280         2.152191
 C        -1.173993        -1.216506         2.895860
 C        -0.975517         0.165030         2.236069
 H        -1.380979         1.480640        -0.533755
 H        -3.557944         1.060205         1.895578
 H        -3.487976         1.636058         0.156232
 H        -3.292477        -0.645855        -0.502158
 H        -4.199339        -1.423766         2.179065
 H        -3.639315        -2.449701         0.740263
 H        -2.535203        -2.996739         3.254388
 H        -0.839290        -1.297472         3.878614
 H        -1.392955         0.919370         2.906269
 H         0.101049         0.315788         2.210436
