19
Iteration:  2204charge 0 multiplicity 1
 O        -0.893370         0.914484        -0.060060
 C        -1.726958         0.324609         0.949576
 C        -2.970407         1.014630         1.123627
 C        -2.977752        -0.385023         0.658784
 C        -3.361683        -1.567824         1.596973
 C        -2.313257        -2.064619         2.501612
 O        -1.036079        -2.535532         1.905574
 C        -0.998291        -1.376265         2.669775
 C        -0.841752         0.010492         2.207574
 H        -0.079578         0.392347        -0.091444
 H        -3.430607         1.147831         2.100830
 H        -3.121963         1.797451         0.294199
 H        -3.148215        -0.574536        -0.448730
 H        -4.260165        -1.314703         2.187514
 H        -3.639420        -2.449267         1.050113
 H        -2.734616        -2.668751         3.249630
 H        -0.467407        -1.634431         3.610848
 H        -0.779410         0.761050         3.031547
 H         0.215281         0.100511         1.800756
