19
Iteration:  4266charge 0 multiplicity 1
 O        -1.070871         1.053245        -0.193565
 C        -1.642764         0.429231         0.858588
 C        -3.026322         0.874871         1.351663
 C        -2.828869        -0.371878         0.623617
 C        -3.108494        -1.769351         1.261380
 C        -2.371864        -1.922031         2.578277
 O        -1.141265        -2.663371         2.276136
 C        -1.131379        -1.279060         2.821663
 C        -0.696373        -0.117969         1.935162
 H        -0.971261         1.948781         0.107986
 H        -3.309708         0.849022         2.426370
 H        -3.269634         1.817789         0.864582
 H        -3.098503        -0.274711        -0.442662
 H        -4.188942        -1.722192         1.514827
 H        -2.822062        -2.498485         0.534355
 H        -2.959547        -2.276302         3.411761
 H        -0.858626        -1.419495         3.871016
 H        -0.315061         0.748082         2.580372
 H         0.258254        -0.451545         1.461299
