19
Iteration:  1348charge 0 multiplicity 1
 O        -0.865257         0.835410        -0.130848
 C        -1.623797         0.336237         0.970785
 C        -3.093056         0.956529         1.081698
 C        -2.895149        -0.474039         0.628288
 C        -3.293543        -1.708050         1.351869
 C        -2.285173        -2.120282         2.473296
 O        -0.960996        -2.424713         2.029073
 C        -1.047394        -1.211348         2.890288
 C        -0.947305         0.153132         2.283271
 H        -0.928816         0.136507        -0.798805
 H        -3.387149         0.903689         2.104447
 H        -3.324015         1.782455         0.365822
 H        -2.988243        -0.614177        -0.463936
 H        -4.205194        -1.496067         1.809483
 H        -3.616488        -2.584323         0.793611
 H        -2.712866        -2.680449         3.252867
 H        -0.813770        -1.435323         3.965516
 H        -1.305322         0.898049         3.020849
 H         0.141893         0.427093         2.237441
