19
Iteration:  4032charge 0 multiplicity 1
 O        -0.916696         0.935018        -0.151539
 C        -1.672718         0.350612         0.951607
 C        -2.969286         0.923034         1.153957
 C        -2.943331        -0.457600         0.662557
 C        -3.376430        -1.664386         1.507223
 C        -2.269090        -2.191705         2.441662
 O        -1.033894        -2.445249         1.955112
 C        -1.131604        -1.242014         2.894297
 C        -0.754813        -0.017332         2.121979
 H        -0.247339         1.601444         0.199856
 H        -3.296611         1.119967         2.177869
 H        -3.210300         1.726180         0.365842
 H        -3.109555        -0.627092        -0.476565
 H        -4.261973        -1.260179         2.096417
 H        -3.722137        -2.334957         0.749553
 H        -2.655935        -2.772911         3.280285
 H        -0.889478        -1.518731         3.964047
 H        -0.942505         0.878241         2.828140
 H         0.357497         0.029750         1.963366
