19
Iteration:  1641
 O        -0.931624         0.928561        -0.180947
 C        -1.664518         0.398590         0.976549
 C        -2.991171         0.874578         1.382030
 C        -2.922062        -0.447428         0.650380
 C        -3.118740        -1.811714         1.168327
 C        -2.438525        -1.959627         2.469765
 O        -1.116662        -2.514888         2.296320
 C        -1.156509        -1.180972         2.857751
 C        -0.691155        -0.034841         1.948709
 H        -1.103750         1.906726        -0.249018
 H        -3.114477         1.049771         2.432856
 H        -3.318599         1.720068         0.706901
 H        -3.211203        -0.379747        -0.404483
 H        -4.169081        -2.127306         1.308026
 H        -2.773433        -2.552205         0.426189
 H        -3.026697        -2.509965         3.350019
 H        -1.068459        -1.047075         3.965699
 H        -0.378996         0.825133         2.577915
 H         0.133315        -0.479941         1.419163
