19
Iteration:   725
 O        -0.866947         0.851631        -0.118136
 C        -1.683509         0.366499         0.910244
 C        -3.128386         0.930091         0.961773
 C        -2.802314        -0.498074         0.546219
 C        -3.175834        -1.656220         1.545919
 C        -2.233337        -2.144972         2.588023
 O        -0.962665        -2.466193         1.950420
 C        -1.119169        -1.231474         2.885760
 C        -1.059211         0.205803         2.324204
 H        -0.501787         0.079382        -0.643553
 H        -3.522717         1.114133         1.935454
 H        -3.470750         1.623099         0.145104
 H        -2.871968        -0.818924        -0.523917
 H        -4.186042        -1.383909         1.959173
 H        -3.425400        -2.471019         0.853764
 H        -2.651658        -2.799270         3.383456
 H        -0.628419        -1.382149         3.820510
 H        -1.596111         0.824111         3.000556
 H        -0.037039         0.482563         2.418608
