19
Iteration:   800charge 0 multiplicity 1
 O        -0.872798         0.789969        -0.217524
 C        -1.661103         0.378849         0.985935
 C        -3.140562         0.851663         1.043887
 C        -2.758656        -0.544787         0.635113
 C        -3.286865        -1.684562         1.504532
 C        -2.338794        -2.095747         2.553857
 O        -0.964096        -2.364345         1.900286
 C        -1.185119        -1.195392         2.884536
 C        -0.897245         0.192847         2.273920
 H        -0.026760         0.938654         0.211323
 H        -3.504237         0.737950         2.031519
 H        -3.538315         1.660930         0.411287
 H        -2.749016        -0.861350        -0.414696
 H        -4.283379        -1.267234         1.801292
 H        -3.504429        -2.621360         0.930782
 H        -2.615251        -2.887073         3.298773
 H        -0.667505        -1.319290         3.730428
 H        -1.291104         0.890068         3.065294
 H         0.197091         0.178469         2.230944
