19
Iteration:  3062charge 0 multiplicity 1
 O        -0.874108         1.021866        -0.058801
 C        -1.716762         0.352106         0.918423
 C        -3.012149         0.956447         1.202418
 C        -2.839184        -0.487139         0.602427
 C        -3.358728        -1.554874         1.578838
 C        -2.344803        -2.136387         2.523349
 O        -1.059945        -2.474185         1.952354
 C        -1.083077        -1.342202         2.746708
 C        -0.811107        -0.042960         2.076374
 H         0.049627         0.709582        -0.241074
 H        -3.266050         0.914713         2.220042
 H        -3.440388         1.649776         0.451936
 H        -3.059262        -0.746155        -0.462445
 H        -4.231620        -1.125169         2.134125
 H        -3.774895        -2.367140         0.910017
 H        -2.727361        -2.742260         3.345256
 H        -0.601258        -1.511867         3.731898
 H        -0.841792         0.745317         2.863346
 H         0.230546        -0.133195         1.777242
