19
Iteration:  1654charge 0 multiplicity 1
 O        -0.987119         0.933303        -0.206059
 C        -1.630571         0.421063         0.890900
 C        -2.987955         0.922447         1.409486
 C        -2.910847        -0.406490         0.621005
 C        -3.167901        -1.840238         1.115000
 C        -2.387000        -1.930018         2.479850
 O        -1.100643        -2.591352         2.351588
 C        -1.237364        -1.179296         2.876162
 C        -0.603021        -0.069953         2.031397
 H        -1.455440         1.716357        -0.520417
 H        -3.230923         0.741000         2.381087
 H        -3.685237         1.709454         0.943874
 H        -3.057455        -0.169257        -0.414720
 H        -4.254404        -2.056004         1.079923
 H        -2.613118        -2.481064         0.520006
 H        -3.008927        -2.215926         3.372531
 H        -0.822729        -1.228862         3.911496
 H        -0.305092         0.774155         2.631846
 H         0.337166        -0.186438         1.502995
