19
Iteration:  3041
 O        -0.849724         0.899094        -0.150873
 C        -1.644023         0.415533         0.996805
 C        -3.006562         0.909350         1.246860
 C        -2.969384        -0.418506         0.629236
 C        -3.402211        -1.694141         1.488081
 C        -2.306094        -2.034030         2.496187
 O        -1.082605        -2.441672         1.893422
 C        -1.120663        -1.315936         2.811426
 C        -0.735752         0.035908         2.171205
 H         0.071407         0.514209        -0.153647
 H        -3.322372         0.773307         2.247373
 H        -3.438701         1.789627         0.683105
 H        -3.264961        -0.435420        -0.445429
 H        -4.348516        -1.387571         1.930479
 H        -3.555044        -2.676201         0.920716
 H        -2.565601        -2.847720         3.251659
 H        -0.597802        -1.481038         3.771628
 H        -0.703018         0.913530         2.869103
 H         0.259758        -0.161787         1.773193
