19
Iteration:  2498charge 0 multiplicity 1
 O        -0.945778         0.908356        -0.217918
 C        -1.693411         0.387404         0.933948
 C        -2.951047         1.046438         1.347426
 C        -2.968972        -0.321025         0.624154
 C        -3.210364        -1.656500         1.331633
 C        -2.323910        -2.079023         2.493826
 O        -1.035563        -2.528919         2.150678
 C        -1.097043        -1.333557         2.870278
 C        -0.775028        -0.038458         2.093599
 H        -1.342830         0.489761        -0.962756
 H        -3.070938         0.905797         2.426614
 H        -3.369676         1.789740         0.713646
 H        -3.247417        -0.229967        -0.405152
 H        -4.271151        -1.921220         1.466388
 H        -2.941270        -2.412270         0.540016
 H        -2.873544        -2.728019         3.179199
 H        -0.906447        -1.417089         3.928943
 H        -0.828801         0.649522         2.880261
 H         0.200072        -0.163670         1.788809
