19
Iteration:  1474
 O        -0.889229         0.757357        -0.099863
 C        -1.754135         0.381259         0.946220
 C        -2.974568         1.123641         1.088747
 C        -2.910142        -0.452946         0.599478
 C        -3.261456        -1.758754         1.390820
 C        -2.277692        -2.154987         2.465113
 O        -0.903687        -2.425596         2.070637
 C        -1.152542        -1.248731         2.933410
 C        -0.887252         0.026554         2.194130
 H        -0.919197         1.721246        -0.365894
 H        -3.417936         1.380724         1.994116
 H        -3.363488         1.924393         0.378230
 H        -3.123564        -0.613772        -0.446659
 H        -4.260333        -1.716621         1.874128
 H        -3.365090        -2.549966         0.633951
 H        -2.852071        -2.942672         3.120489
 H        -0.949970        -1.297307         3.995341
 H        -1.118545         0.796005         2.891099
 H         0.086770         0.080756         1.794646
