19
Iteration:  2602charge 0 multiplicity 1
 O        -0.991215         1.237138        -0.109345
 C        -1.652358         0.389045         0.855213
 C        -2.962841         0.838781         1.354907
 C        -2.852867        -0.431977         0.588509
 C        -3.286435        -1.749814         1.320823
 C        -2.402892        -1.944214         2.514598
 O        -1.146543        -2.618038         2.285304
 C        -1.091523        -1.283633         2.811498
 C        -0.610111        -0.124018         1.905671
 H        -0.728722         0.573104        -0.762483
 H        -3.247190         0.763010         2.433331
 H        -3.541013         1.627722         0.964702
 H        -3.288274        -0.386751        -0.428780
 H        -4.362989        -1.725174         1.581010
 H        -3.011089        -2.545666         0.663962
 H        -3.055873        -2.308411         3.284793
 H        -0.832950        -1.287355         3.902882
 H        -0.353233         0.686547         2.633604
 H         0.336711        -0.531492         1.517447
