19
Iteration:  1744
 O        -1.108007         1.229587        -0.128942
 C        -1.643336         0.399353         0.941065
 C        -3.025973         0.808731         1.326201
 C        -2.895222        -0.404752         0.392619
 C        -3.064257        -1.745200         1.213859
 C        -2.451343        -1.883933         2.551664
 O        -1.172698        -2.609472         2.491994
 C        -1.120104        -1.316288         2.883684
 C        -0.584433        -0.200148         1.794471
 H        -0.184174         1.263097         0.068529
 H        -3.180671         0.490837         2.453602
 H        -3.220538         1.827882         1.107248
 H        -3.247360        -0.515109        -0.669417
 H        -4.101604        -1.775267         1.576505
 H        -2.809888        -2.626426         0.656779
 H        -3.164418        -2.140811         3.270998
 H        -0.866775        -1.189884         3.954519
 H        -0.085228         0.642687         2.306326
 H         0.159017        -0.693758         1.046688
