19
Iteration:  2715
 O        -1.094092         1.264201        -0.027355
 C        -1.630959         0.355034         0.905291
 C        -2.939590         0.838564         1.337964
 C        -2.856095        -0.445843         0.524579
 C        -3.183282        -1.702496         1.290551
 C        -2.390778        -1.942784         2.572830
 O        -1.221599        -2.665840         2.337878
 C        -1.144823        -1.228841         2.750788
 C        -0.571807        -0.172304         1.803369
 H        -0.558656         0.734350        -0.703476
 H        -3.146704         0.808623         2.372804
 H        -3.202398         1.778183         0.856897
 H        -2.979960        -0.436047        -0.548269
 H        -4.230606        -1.784364         1.592922
 H        -3.167145        -2.629886         0.798902
 H        -2.808875        -2.327513         3.566555
 H        -0.894970        -1.108761         3.768419
 H        -0.354100         0.715156         2.451455
 H         0.394754        -0.640344         1.474512
