19
Iteration:   364charge 0 multiplicity 1
 O        -1.043298         1.101983        -0.266761
 C        -1.664940         0.381535         0.785289
 C        -3.026461         0.824436         1.351999
 C        -2.893858        -0.495503         0.471472
 C        -2.915226        -1.938917         1.102151
 C        -2.408950        -2.002413         2.496456
 O        -1.008816        -2.449306         2.653098
 C        -1.361620        -1.091935         2.964366
 C        -0.733433        -0.107630         1.909827
 H        -0.521951         1.873079         0.047940
 H        -3.112203         0.526567         2.451543
 H        -3.673214         1.598046         0.923839
 H        -3.342853        -0.341130        -0.546285
 H        -4.014832        -2.138523         1.175715
 H        -2.377357        -2.588201         0.415864
 H        -3.152522        -2.224951         3.281228
 H        -1.417410        -0.776254         4.016554
 H        -0.088840         0.715964         2.371891
 H        -0.009557        -0.827352         1.526056
