19
Iteration:  1815
 O        -0.907044         1.064580        -0.113244
 C        -1.711014         0.392762         0.797527
 C        -3.011147         0.889200         1.528204
 C        -3.018598        -0.313250         0.616051
 C        -3.062407        -1.729001         1.144064
 C        -2.422873        -1.949186         2.425749
 O        -1.027297        -2.539399         2.483467
 C        -1.268067        -1.203022         2.849833
 C        -0.641649        -0.281886         1.814913
 H        -1.081357         1.135048        -1.033527
 H        -2.968797         0.616369         2.550015
 H        -3.399650         1.789959         1.156607
 H        -3.469355        -0.234796        -0.335346
 H        -4.096272        -1.902635         1.451139
 H        -2.650558        -2.469340         0.404611
 H        -3.113069        -2.529719         3.103469
 H        -1.151688        -1.038335         3.917658
 H        -0.120585         0.586121         2.309882
 H         0.035302        -0.924349         1.266217
