19
Iteration:  3756charge 0 multiplicity 1
 O        -0.986020         1.159258        -0.197379
 C        -1.690570         0.442340         0.865146
 C        -3.056215         0.887508         1.327235
 C        -2.893414        -0.377250         0.529824
 C        -3.150837        -1.666185         1.223065
 C        -2.411441        -1.960463         2.571429
 O        -1.089838        -2.709478         2.451597
 C        -1.083764        -1.349138         2.809969
 C        -0.681418        -0.168423         1.911289
 H        -1.328692         2.070561        -0.103416
 H        -3.033061         0.752723         2.439483
 H        -3.324878         1.985839         1.182770
 H        -3.262856        -0.365808        -0.524474
 H        -4.223494        -2.107804         1.220414
 H        -2.723715        -2.319963         0.477770
 H        -2.983392        -2.395017         3.412452
 H        -0.693156        -1.494144         3.830141
 H        -0.396998         0.621143         2.538355
 H         0.197525        -0.555383         1.424409
