19
Iteration:  4820charge 0 multiplicity 1
 O        -0.920690         0.891982        -0.127811
 C        -1.707425         0.353994         0.880315
 C        -3.099548         1.037203         1.272256
 C        -2.949265        -0.383084         0.581545
 C        -3.187431        -1.674750         1.427815
 C        -2.311037        -2.008237         2.587823
 O        -1.021509        -2.600985         2.110106
 C        -0.981210        -1.359456         2.712840
 C        -0.895335         0.004140         2.077487
 H        -0.416548         1.611897         0.347250
 H        -3.245148         1.233038         2.279235
 H        -3.308016         1.911734         0.619792
 H        -3.198516        -0.351144        -0.520490
 H        -4.284145        -1.763750         1.794051
 H        -3.235806        -2.464767         0.635619
 H        -2.774621        -2.824864         3.152620
 H        -0.521372        -1.386937         3.658187
 H        -1.080525         0.662195         2.917878
 H         0.119745         0.161661         1.729940
