19
Iteration:  2297
 O        -0.829241         0.742948        -0.088735
 C        -1.724696         0.397602         0.971854
 C        -2.979719         1.139850         1.224849
 C        -2.971937        -0.317225         0.615164
 C        -3.338928        -1.570276         1.485240
 C        -2.195182        -2.115758         2.477208
 O        -1.018939        -2.599151         1.898471
 C        -1.041322        -1.384620         2.821314
 C        -0.883018         0.074922         2.195423
 H        -1.018092         0.333470        -0.976085
 H        -3.385524         1.248391         2.260817
 H        -3.595306         1.808153         0.578115
 H        -3.530619        -0.328460        -0.326218
 H        -4.250349        -1.453404         2.153123
 H        -3.534724        -2.377444         0.676320
 H        -2.723031        -2.815729         3.307891
 H        -0.548431        -1.531464         3.786193
 H        -0.976195         0.888570         2.930412
 H         0.167229         0.318721         1.972026
