19
Iteration:   563
 O        -0.974277         0.981074        -0.169846
 C        -1.689166         0.275568         0.951483
 C        -3.082606         0.823431         1.062138
 C        -2.884070        -0.558221         0.476224
 C        -3.307718        -1.753857         1.383621
 C        -2.292621        -2.086726         2.498957
 O        -0.862793        -2.310264         2.217932
 C        -1.240589        -1.153497         2.992567
 C        -0.782226         0.030459         2.128891
 H        -0.085021         0.920084         0.197819
 H        -3.710295         0.956209         1.964983
 H        -3.241222         1.593883         0.364339
 H        -2.913592        -0.774113        -0.598819
 H        -4.331551        -1.680376         1.771943
 H        -3.343744        -2.608518         0.727482
 H        -2.551162        -2.909138         3.097222
 H        -0.992083        -1.016083         4.055255
 H        -0.992842         1.024113         2.665119
 H         0.308327        -0.066991         1.874937
