19
Iteration:  2716
 O        -1.099133         1.259797        -0.022272
 C        -1.631617         0.358337         0.913475
 C        -2.941122         0.839183         1.324139
 C        -2.849064        -0.434362         0.519696
 C        -3.188846        -1.700137         1.291028
 C        -2.392303        -1.945584         2.577899
 O        -1.217413        -2.668501         2.340107
 C        -1.142816        -1.229804         2.744370
 C        -0.576901        -0.175296         1.804561
 H        -0.564455         0.772899        -0.714235
 H        -3.138324         0.809044         2.401444
 H        -3.188205         1.769261         0.848083
 H        -2.973327        -0.472065        -0.575158
 H        -4.208379        -1.771552         1.622130
 H        -3.156103        -2.639399         0.784693
 H        -2.809814        -2.313820         3.585209
 H        -0.871671        -1.121986         3.778751
 H        -0.350318         0.710674         2.447110
 H         0.389078        -0.652658         1.458248
