19
Iteration:   861
 O        -0.916970         0.766459        -0.196524
 C        -1.738261         0.437624         0.909598
 C        -3.114686         1.013149         1.074678
 C        -2.901148        -0.454856         0.575611
 C        -3.267640        -1.653021         1.355761
 C        -2.175294        -2.160811         2.477294
 O        -0.866975        -2.461911         2.157477
 C        -1.188662        -1.232724         3.011606
 C        -0.876232        -0.008602         2.228968
 H        -0.805917         1.713732        -0.245169
 H        -3.665489         1.142156         2.002426
 H        -3.458288         1.708704         0.242459
 H        -3.219908        -0.391813        -0.482242
 H        -4.246771        -1.396859         1.828800
 H        -3.453260        -2.461625         0.632127
 H        -2.769748        -2.804015         3.120603
 H        -0.743475        -1.287119         4.150770
 H        -0.668031         0.891330         2.769849
 H         0.131032        -0.194337         1.819850
