19
Iteration:  4318
 O        -1.135383         1.114843        -0.165013
 C        -1.663240         0.405835         0.879117
 C        -2.947736         0.866675         1.492421
 C        -2.857120        -0.407863         0.516986
 C        -3.139790        -1.677825         1.215271
 C        -2.385262        -2.038746         2.425487
 O        -1.050908        -2.557237         2.445230
 C        -1.247623        -1.181016         2.849932
 C        -0.608606        -0.265262         1.820344
 H        -0.374377         1.557012         0.205136
 H        -3.337014         0.729036         2.499111
 H        -3.446612         1.669591         0.931466
 H        -3.249743        -0.181365        -0.456997
 H        -4.257848        -1.777119         1.449311
 H        -2.811562        -2.413543         0.446453
 H        -2.974129        -2.305295         3.307251
 H        -1.080987        -1.246092         3.993597
 H        -0.030412         0.573897         2.291686
 H         0.133452        -0.855372         1.275740
