19
Iteration:  4481charge 0 multiplicity 1
 O        -1.111794         1.121375        -0.260964
 C        -1.635933         0.488824         0.963787
 C        -3.022220         0.939805         1.350755
 C        -2.881835        -0.306556         0.618805
 C        -3.140406        -1.772566         1.192884
 C        -2.351531        -2.045463         2.503585
 O        -1.117469        -2.700757         2.433273
 C        -1.180150        -1.294566         2.832098
 C        -0.621603        -0.178022         1.885637
 H        -0.639912         1.958235        -0.092365
 H        -3.130469         0.872712         2.448619
 H        -3.408975         1.797662         0.803391
 H        -3.185925        -0.208565        -0.451989
 H        -4.158446        -2.128464         1.262379
 H        -2.509245        -2.387080         0.525014
 H        -2.972446        -2.210285         3.426976
 H        -0.963999        -1.156780         3.968083
 H        -0.181649         0.555156         2.571424
 H         0.216865        -0.712402         1.430600
