19
Iteration:  3759charge 0 multiplicity 1
 O        -0.948991         1.164196        -0.227247
 C        -1.711945         0.432274         0.868643
 C        -3.071472         0.888561         1.336417
 C        -2.918310        -0.371849         0.545442
 C        -3.173511        -1.666397         1.242545
 C        -2.397604        -1.955623         2.555807
 O        -1.082916        -2.700476         2.453430
 C        -1.076254        -1.358276         2.791348
 C        -0.687813        -0.193156         1.942769
 H        -1.338160         2.072544        -0.100298
 H        -2.995271         0.780208         2.447478
 H        -3.364428         1.988564         1.142178
 H        -3.168858        -0.311672        -0.460528
 H        -4.155765        -2.158296         1.147290
 H        -2.632731        -2.309203         0.454100
 H        -2.992721        -2.401063         3.372154
 H        -0.720417        -1.453964         3.851458
 H        -0.453267         0.673216         2.575844
 H         0.176427        -0.517937         1.376829
