19
Iteration:  2863
 O        -0.908557         1.033060        -0.078639
 C        -1.693698         0.361799         0.891022
 C        -3.003388         1.083280         1.259539
 C        -2.989483        -0.311859         0.593619
 C        -3.253717        -1.654089         1.386580
 C        -2.357535        -2.169393         2.510032
 O        -0.999813        -2.611593         2.148864
 C        -1.108831        -1.264341         2.860149
 C        -0.782858        -0.125776         2.003864
 H        -0.660301         0.456016        -0.819914
 H        -3.320281         1.054499         2.320096
 H        -3.291332         1.940891         0.565699
 H        -3.354073        -0.457008        -0.385192
 H        -4.262073        -1.723284         1.772818
 H        -3.238480        -2.396189         0.592402
 H        -2.730394        -2.666506         3.340554
 H        -0.585249        -1.163239         3.869983
 H        -0.564291         0.625032         2.779869
 H         0.218752        -0.354067         1.602373
