19
Iteration:  1807charge 0 multiplicity 1
 O        -0.896712         1.090412        -0.154875
 C        -1.694983         0.361719         0.811635
 C        -3.028728         0.875658         1.498430
 C        -2.954038        -0.299814         0.576066
 C        -3.091147        -1.745582         1.136382
 C        -2.436023        -2.025373         2.485492
 O        -1.034482        -2.545265         2.462585
 C        -1.279176        -1.187482         2.883138
 C        -0.623690        -0.273190         1.826733
 H        -1.552063         1.321763        -0.826689
 H        -2.860263         0.801584         2.617241
 H        -3.418101         1.805974         1.323024
 H        -3.473370         0.053103        -0.349135
 H        -4.176380        -2.036187         1.174298
 H        -2.702489        -2.395394         0.395298
 H        -3.008296        -2.278971         3.392351
 H        -1.099333        -0.939144         3.942220
 H        -0.137458         0.561930         2.273212
 H         0.028469        -0.995458         1.346245
