19
Iteration:  3766charge 0 multiplicity 1
 O        -0.898101         1.152368        -0.257118
 C        -1.702108         0.390252         0.880193
 C        -3.064692         0.936126         1.391471
 C        -2.996722        -0.333916         0.593154
 C        -3.148078        -1.725010         1.242738
 C        -2.383427        -1.973311         2.512545
 O        -1.086553        -2.697713         2.409934
 C        -1.080903        -1.352569         2.818064
 C        -0.692408        -0.201852         1.964174
 H        -1.248123         2.086617        -0.190516
 H        -3.163978         0.809605         2.485145
 H        -3.596872         1.762839         0.832125
 H        -3.143985        -0.232733        -0.534336
 H        -4.226133        -2.115391         1.172968
 H        -2.525063        -2.338143         0.645723
 H        -3.002520        -2.339686         3.346495
 H        -0.835901        -0.980361         3.839629
 H        -0.464782         0.599067         2.635461
 H         0.186627        -0.318776         1.315981
