19
Iteration:   839charge 0 multiplicity 1
 O        -0.915375         0.755296        -0.135315
 C        -1.722174         0.308769         0.904720
 C        -3.117331         1.042256         1.043884
 C        -2.962957        -0.472263         0.586872
 C        -3.208871        -1.691393         1.389922
 C        -2.289963        -2.013033         2.593486
 O        -0.901704        -2.434937         2.099666
 C        -1.094052        -1.280240         2.827350
 C        -0.932285         0.067725         2.197128
 H        -0.291749         1.384137         0.318479
 H        -3.483857         1.178227         2.079455
 H        -3.224224         1.940160         0.377122
 H        -2.930173        -0.654857        -0.502763
 H        -4.200802        -1.746149         1.850642
 H        -3.090990        -2.544645         0.706799
 H        -2.715753        -2.868097         3.092093
 H        -0.578721        -1.396370         3.933032
 H        -1.224266         0.835302         2.911823
 H         0.149611         0.290498         2.093133
