19
Iteration:  2596
 O        -0.999416         1.233741        -0.108166
 C        -1.637434         0.374132         0.878839
 C        -2.979931         0.809298         1.394630
 C        -2.877458        -0.420531         0.521160
 C        -3.314398        -1.768291         1.328644
 C        -2.447257        -1.939550         2.536564
 O        -1.129586        -2.588273         2.266575
 C        -1.077554        -1.277640         2.780852
 C        -0.567791        -0.113212         1.957507
 H        -0.554848         0.668797        -0.746317
 H        -3.151812         0.625830         2.424570
 H        -3.376572         1.686946         0.785450
 H        -3.159914        -0.367288        -0.505979
 H        -4.376928        -1.726487         1.555659
 H        -3.225259        -2.741901         0.713685
 H        -3.028279        -2.317230         3.490212
 H        -0.878493        -1.208672         3.827349
 H        -0.262986         0.726524         2.596896
 H         0.301448        -0.542496         1.367754
