19
Iteration:  1488charge 0 multiplicity 1
 O        -0.848582         0.759780        -0.180571
 C        -1.662782         0.429308         0.952355
 C        -3.045531         1.024948         1.100140
 C        -3.019711        -0.347652         0.572739
 C        -3.221612        -1.680919         1.365900
 C        -2.262253        -2.207570         2.468201
 O        -0.850613        -2.432720         2.121167
 C        -1.262498        -1.294133         2.936005
 C        -0.934158         0.062145         2.241779
 H        -1.332539         1.483544        -0.566999
 H        -3.253090         1.175912         2.197597
 H        -3.274978         1.717420         0.358229
 H        -3.133656        -0.346039        -0.534683
 H        -4.301015        -1.666264         1.878769
 H        -3.336431        -2.541380         0.664715
 H        -2.546773        -2.948269         3.208390
 H        -0.788663        -1.441620         3.998031
 H        -0.632902         0.894983         2.938274
 H         0.102039        -0.306095         1.977337
