19
Iteration:  1365charge 0 multiplicity 1
 O        -0.874051         0.847198        -0.100130
 C        -1.743533         0.453461         0.921315
 C        -3.087707         0.977826         1.061138
 C        -2.859235        -0.481290         0.532713
 C        -3.234680        -1.633243         1.547357
 C        -2.285575        -2.110551         2.489991
 O        -0.879294        -2.438667         2.029124
 C        -1.186148        -1.296094         2.860251
 C        -0.961456         0.054233         2.218974
 H        -0.279733         0.097413        -0.247347
 H        -3.480560         1.141490         2.095553
 H        -3.396895         1.494032         0.135500
 H        -3.039624        -0.544035        -0.528559
 H        -4.296892        -1.468837         2.055091
 H        -3.291442        -2.449907         0.794464
 H        -2.805150        -2.912887         3.139927
 H        -0.714839        -1.388475         3.838175
 H        -1.052717         0.834910         3.025090
 H         0.121089         0.184871         2.060051
