19
Iteration:  1309
 O        -0.813718         0.766945        -0.061905
 C        -1.700985         0.380149         0.922492
 C        -3.102417         0.888148         1.107876
 C        -2.819480        -0.442086         0.617053
 C        -3.205885        -1.792902         1.418525
 C        -2.316238        -2.090380         2.514147
 O        -0.961622        -2.301902         1.990652
 C        -1.229263        -1.231470         2.938405
 C        -0.875322         0.069308         2.159475
 H        -1.218105         1.315241        -0.760309
 H        -3.670711         1.045492         2.065023
 H        -3.523674         1.673249         0.535055
 H        -2.906717        -0.533477        -0.475201
 H        -4.227873        -1.577869         1.976093
 H        -3.255002        -2.459808         0.547043
 H        -2.721406        -2.680738         3.460360
 H        -0.883338        -1.277496         3.935777
 H        -0.870124         0.970003         2.770528
 H         0.093495        -0.195553         1.766561
