19
Iteration:  4590charge 0 multiplicity 1
 O        -1.180931         0.975339        -0.207286
 C        -1.599598         0.473893         1.078901
 C        -3.063315         0.985735         1.205636
 C        -2.851641        -0.383605         0.561954
 C        -3.227631        -1.634353         1.209290
 C        -2.313622        -2.012120         2.471287
 O        -1.066521        -2.656406         2.297826
 C        -1.040777        -1.316644         2.866943
 C        -0.635518        -0.160281         2.052245
 H        -0.611405         1.811484        -0.139044
 H        -3.562186         1.016563         2.126436
 H        -3.563166         1.848187         0.658218
 H        -3.053992        -0.422416        -0.530449
 H        -4.285598        -1.651179         1.404909
 H        -3.105551        -2.443360         0.450248
 H        -2.814464        -2.563627         3.348249
 H        -0.793569        -1.312169         3.994012
 H        -0.500665         0.668173         2.852432
 H         0.434752        -0.401242         1.848887
