19
Iteration:  1161
 O        -1.102081         1.050568        -0.319343
 C        -1.667723         0.489110         0.904282
 C        -2.992266         0.968985         1.353068
 C        -2.807464        -0.447148         0.583357
 C        -3.055612        -1.899746         1.145046
 C        -2.351714        -2.123511         2.446226
 O        -1.047592        -2.643431         2.619821
 C        -1.289442        -1.151547         2.838106
 C        -0.681934         0.005207         1.929912
 H        -0.845950         1.947691        -0.130721
 H        -3.290854         1.189155         2.426320
 H        -3.496709         1.708575         0.751403
 H        -3.261055        -0.215158        -0.372318
 H        -4.141598        -2.027451         1.201354
 H        -2.760608        -2.799103         0.535695
 H        -2.968509        -2.558337         3.250227
 H        -1.158144        -0.972196         3.978288
 H        -0.243108         0.758689         2.549218
 H         0.117673        -0.555570         1.426445
