19
Iteration:  1378
 O        -0.860743         0.882673        -0.085362
 C        -1.720500         0.403787         0.953043
 C        -3.112170         0.989761         0.947173
 C        -2.901430        -0.462700         0.632424
 C        -3.289475        -1.633438         1.442259
 C        -2.266987        -2.211498         2.550448
 O        -0.893870        -2.419575         2.027050
 C        -1.130897        -1.320142         2.884865
 C        -0.933183         0.072059         2.183243
 H         0.049881         0.514137         0.114999
 H        -3.634976         1.256798         1.811288
 H        -3.459808         1.814622         0.252028
 H        -3.113821        -0.749317        -0.384686
 H        -4.215645        -1.309847         2.062499
 H        -3.702146        -2.473276         0.880073
 H        -2.552975        -2.971160         3.274215
 H        -0.698554        -1.319783         3.946890
 H        -1.036061         0.945478         2.909874
 H         0.103474        -0.077723         1.755470
