19
Iteration:  2177
 O        -0.850774         0.843763        -0.185333
 C        -1.717483         0.469434         0.906343
 C        -3.034810         1.077542         1.184326
 C        -2.894374        -0.324052         0.716580
 C        -3.316862        -1.587064         1.524378
 C        -2.294651        -2.125375         2.537259
 O        -0.988435        -2.591119         1.895609
 C        -1.074576        -1.402272         2.813989
 C        -0.869257         0.018082         2.250766
 H        -1.059525         0.181722        -0.870347
 H        -3.204042         1.402280         2.208483
 H        -3.329177         1.706749         0.419163
 H        -3.214218        -0.322509        -0.278889
 H        -4.286428        -1.316065         1.930626
 H        -3.468341        -2.524367         0.898263
 H        -2.833002        -2.949066         3.103111
 H        -0.529131        -1.605622         3.725984
 H        -0.976942         0.735777         3.080150
 H         0.164264         0.224290         2.025691
