19
Iteration:  3333charge 0 multiplicity 1
 O        -0.769397         0.705453        -0.199622
 C        -1.690340         0.460631         0.959757
 C        -2.960944         1.133966         1.213547
 C        -2.877178        -0.323624         0.700914
 C        -3.407603        -1.771887         1.532597
 C        -2.263571        -2.194500         2.435467
 O        -0.933610        -2.469610         1.954358
 C        -1.160405        -1.328391         2.767977
 C        -0.981729         0.087705         2.215798
 H        -1.006054         1.635450        -0.446232
 H        -3.387481         1.202336         2.244639
 H        -3.269069         1.995625         0.645866
 H        -3.251903        -0.694999        -0.270004
 H        -4.357036        -1.760844         2.151748
 H        -3.561491        -2.455104         0.757512
 H        -2.579224        -2.893441         3.208293
 H        -0.613341        -1.473906         3.725073
 H        -1.287442         0.801528         2.969920
 H         0.079880         0.186723         1.831684
