19
Iteration:  1167charge 0 multiplicity 1
 O        -1.054517         1.056184        -0.335788
 C        -1.674864         0.445159         0.889970
 C        -2.987259         0.954982         1.354063
 C        -2.839306        -0.428263         0.618399
 C        -3.086024        -1.839096         1.128234
 C        -2.343165        -2.129532         2.489810
 O        -0.999722        -2.613608         2.600898
 C        -1.314039        -1.179787         2.869918
 C        -0.692043        -0.032046         1.915043
 H        -0.838125         1.984033        -0.075242
 H        -3.289821         1.088065         2.361805
 H        -3.657676         1.681108         0.832114
 H        -3.134263        -0.446069        -0.465043
 H        -4.148974        -2.041951         1.409758
 H        -2.720578        -2.559135         0.377082
 H        -3.028940        -2.639334         3.188308
 H        -1.357541        -0.975044         3.923708
 H        -0.430990         0.897033         2.556610
 H         0.122093        -0.479940         1.288413
