19
Iteration:  4108
 O        -0.916038         0.924939        -0.181955
 C        -1.617714         0.392821         0.899797
 C        -2.913196         1.032824         1.187015
 C        -2.913596        -0.378889         0.663435
 C        -3.350700        -1.739333         1.502412
 C        -2.348186        -2.157958         2.454911
 O        -0.912902        -2.484620         2.077950
 C        -1.206750        -1.322956         2.852800
 C        -0.871642        -0.027155         2.074360
 H        -0.955157         1.886035        -0.155565
 H        -3.288059         1.074640         2.219641
 H        -3.186801         1.911507         0.553490
 H        -3.050567        -0.465972        -0.473661
 H        -4.270549        -1.618191         2.155288
 H        -3.638814        -2.534451         0.816035
 H        -2.722047        -2.993614         3.047438
 H        -0.775864        -1.511646         3.850102
 H        -1.017105         0.827890         2.839060
 H         0.240993        -0.126207         2.004268
