19
Iteration:  3654
 O        -1.132362         1.024044        -0.252444
 C        -1.691996         0.451872         0.964310
 C        -2.983396         1.092380         1.427816
 C        -2.874588        -0.301007         0.653812
 C        -2.989372        -1.837898         1.107009
 C        -2.444348        -2.106227         2.467135
 O        -1.131627        -2.665408         2.449290
 C        -1.132496        -1.213408         2.878722
 C        -0.682168        -0.187500         1.861876
 H        -0.836072         1.943838        -0.085515
 H        -3.178423         0.935834         2.442501
 H        -3.228428         2.117843         1.082442
 H        -3.117273        -0.361632        -0.424898
 H        -4.095754        -2.001204         1.012415
 H        -2.363411        -2.344908         0.404124
 H        -3.025794        -2.502443         3.298931
 H        -0.956723        -1.186233         3.961910
 H        -0.160888         0.526675         2.414383
 H         0.158986        -0.559181         1.239897
