19
Iteration:  4984charge 0 multiplicity 1
 O        -1.075036         1.018289        -0.192714
 C        -1.623316         0.319943         0.896054
 C        -2.903567         0.818823         1.409784
 C        -2.825838        -0.412560         0.586329
 C        -3.219868        -1.656004         1.298187
 C        -2.337517        -2.064040         2.462983
 O        -1.036311        -2.528900         2.173915
 C        -1.273062        -1.187377         2.822146
 C        -0.711920        -0.080376         2.027545
 H        -0.783745         1.870083         0.112746
 H        -2.959745         0.590027         2.527801
 H        -3.373219         1.630148         0.976541
 H        -3.274302        -0.234465        -0.429674
 H        -4.093448        -1.592603         1.890131
 H        -3.421969        -2.455473         0.561728
 H        -2.778549        -2.558700         3.421665
 H        -0.794565        -1.148359         3.808431
 H        -0.732092         0.816288         2.692010
 H         0.137480        -0.519626         1.511595
