19
Iteration:   125charge 0 multiplicity 1
 O        -0.983450         1.031132        -0.081235
 C        -1.699716         0.289424         0.924473
 C        -3.124028         0.841889         0.903469
 C        -2.759957        -0.616447         0.476147
 C        -3.279305        -1.778792         1.378683
 C        -2.271872        -2.138033         2.467288
 O        -0.866697        -2.320240         2.307873
 C        -1.245650        -1.147757         2.984447
 C        -0.848326         0.079118         2.199858
 H        -0.329159         0.424217        -0.442521
 H        -3.732354         1.086768         1.794488
 H        -3.384137         1.574535         0.039285
 H        -2.703094        -0.794600        -0.590155
 H        -4.160215        -1.454369         1.932554
 H        -3.617505        -2.630174         0.789641
 H        -2.814744        -2.861799         3.093975
 H        -0.843693        -1.060983         4.018605
 H        -0.907315         1.084908         2.658666
 H         0.249133         0.003360         1.892332
