19
Iteration:  1288charge 0 multiplicity 1
 O        -0.765411         0.906915        -0.078448
 C        -1.775687         0.401223         0.906769
 C        -3.130882         0.911840         1.024197
 C        -2.936567        -0.514934         0.560168
 C        -3.350714        -1.746094         1.434587
 C        -2.244165        -2.107137         2.454618
 O        -0.914752        -2.460097         2.201082
 C        -1.146751        -1.192796         2.887842
 C        -0.806103         0.021599         2.144307
 H        -1.180117         1.797078        -0.238767
 H        -3.435476         1.155307         2.074718
 H        -3.569232         1.670063         0.440373
 H        -3.063713        -0.662408        -0.510866
 H        -4.316972        -1.376711         1.881779
 H        -3.340073        -2.552817         0.724119
 H        -2.845870        -2.886395         3.071378
 H        -0.793500        -1.052184         3.883912
 H        -0.625615         0.867404         2.857092
 H         0.159851        -0.306796         1.723116
