19
Iteration:   112charge 0 multiplicity 1
 O        -0.839832         0.991838        -0.024553
 C        -1.720827         0.360333         0.943614
 C        -3.205762         0.709647         0.868683
 C        -2.866328        -0.624247         0.433548
 C        -3.176344        -1.700770         1.382883
 C        -2.275175        -2.077773         2.561248
 O        -0.914895        -2.372779         2.184684
 C        -1.197075        -1.126917         2.995012
 C        -0.908687         0.177041         2.207159
 H        -0.635754         0.293940        -0.705657
 H        -3.639170         0.797653         1.891379
 H        -3.317428         1.516073         0.101654
 H        -2.933548        -0.843614        -0.541980
 H        -4.145357        -1.435123         1.835406
 H        -3.321160        -2.608007         0.823031
 H        -2.591117        -2.739199         3.360892
 H        -0.960847        -1.308367         4.065169
 H        -0.841076         0.985836         2.893387
 H         0.073680        -0.068792         1.830725
