19
Iteration:  1458charge 0 multiplicity 1
 O        -0.865783         0.772801        -0.125555
 C        -1.646605         0.329110         0.974111
 C        -3.098940         0.984213         1.078325
 C        -2.883141        -0.475226         0.642816
 C        -3.316236        -1.705688         1.381401
 C        -2.290324        -2.082244         2.482372
 O        -0.979242        -2.442038         2.056192
 C        -1.138312        -1.285374         2.785823
 C        -0.897284         0.108953         2.237667
 H        -0.652342         1.656476         0.273586
 H        -3.465455         1.313112         2.138916
 H        -3.300652         1.562904         0.224852
 H        -2.954479        -0.459272        -0.457481
 H        -4.257277        -1.496888         1.892417
 H        -3.222823        -2.581798         0.723717
 H        -2.597739        -2.630317         3.320009
 H        -0.545504        -1.252423         3.736126
 H        -1.068448         0.917757         3.022726
 H         0.240660         0.273045         2.053549
