19
Iteration:  1985
 O        -1.060850         0.930959        -0.275550
 C        -1.610957         0.301610         0.947380
 C        -2.922623         0.968800         1.405052
 C        -2.961835        -0.271383         0.607008
 C        -3.232897        -1.675236         1.238634
 C        -2.401140        -2.026489         2.516767
 O        -1.016172        -2.578396         2.187579
 C        -1.177616        -1.340977         2.806865
 C        -0.724990         0.005496         2.128184
 H        -0.162283         0.777548        -0.534021
 H        -3.127588         0.866647         2.536851
 H        -3.277013         1.868156         0.874711
 H        -3.129724        -0.279355        -0.423275
 H        -4.274608        -1.625526         1.655919
 H        -3.110171        -2.518126         0.602457
 H        -2.862212        -2.533307         3.313710
 H        -0.649676        -1.255613         3.748220
 H        -0.702806         0.761534         2.854860
 H         0.309218        -0.154960         1.791502
