19
Iteration:   158charge 0 multiplicity 1
 O        -0.982052         0.945426        -0.298939
 C        -1.641666         0.355017         0.837616
 C        -3.180854         0.842592         1.085640
 C        -2.787101        -0.507086         0.542301
 C        -3.116296        -1.796980         1.267306
 C        -2.329331        -2.149888         2.507943
 O        -0.931586        -2.434822         2.395533
 C        -1.282114        -1.144725         3.010821
 C        -0.864975         0.149519         2.160072
 H        -0.218313         1.517476        -0.023692
 H        -3.498926         0.925744         2.144183
 H        -3.532632         1.565777         0.286137
 H        -2.855238        -0.533131        -0.572116
 H        -4.078945        -1.714533         1.751074
 H        -3.047699        -2.676996         0.627446
 H        -2.756834        -2.820306         3.255633
 H        -0.847995        -1.152600         4.040915
 H        -0.927729         0.931838         2.901568
 H         0.213065        -0.102359         1.918427
