19
Iteration:  2872charge 0 multiplicity 1
 O        -0.902963         1.081426        -0.072481
 C        -1.727073         0.371126         0.887488
 C        -2.948454         1.078628         1.252517
 C        -2.992227        -0.370104         0.574842
 C        -3.264358        -1.663235         1.390633
 C        -2.311909        -2.085004         2.552251
 O        -0.995709        -2.576415         2.148948
 C        -1.122682        -1.398083         2.829198
 C        -0.802061        -0.127791         2.001900
 H        -0.509465         0.440245        -0.701659
 H        -3.389962         1.058893         2.243077
 H        -3.434220         1.825795         0.506018
 H        -3.235640        -0.359253        -0.466335
 H        -4.236839        -1.515096         2.026506
 H        -3.321187        -2.560765         0.794149
 H        -2.876394        -2.592723         3.274523
 H        -0.699760        -1.366118         3.887367
 H        -0.658561         0.715972         2.726984
 H         0.173140        -0.297484         1.439340
