19
Iteration:  2983
 O        -0.895967         0.863473        -0.221309
 C        -1.649886         0.415417         0.938241
 C        -3.091759         1.100472         1.247998
 C        -2.979208        -0.303897         0.742452
 C        -3.239342        -1.602367         1.381812
 C        -2.326728        -2.191100         2.410389
 O        -0.932669        -2.559730         2.076035
 C        -1.116991        -1.322396         2.891101
 C        -0.800050        -0.042622         2.141598
 H        -0.924343         0.252286        -0.978912
 H        -3.248604         1.337213         2.359544
 H        -3.351257         1.889862         0.591334
 H        -3.329699        -0.219716        -0.309667
 H        -4.266138        -1.464566         1.981990
 H        -3.469794        -2.381066         0.637341
 H        -2.737614        -2.962814         3.012004
 H        -0.915671        -1.607366         3.929461
 H        -0.934511         0.736106         2.929298
 H         0.296494         0.009467         1.942423
