19
Iteration:  4290charge 0 multiplicity 1
 O        -1.117721         1.197059        -0.273275
 C        -1.638806         0.443200         0.835562
 C        -2.932972         0.858571         1.419158
 C        -2.844732        -0.441980         0.592325
 C        -3.199975        -1.790724         1.240740
 C        -2.422018        -2.019639         2.516846
 O        -1.190304        -2.657243         2.422841
 C        -1.092253        -1.356670         2.815526
 C        -0.585839        -0.017588         1.916798
 H        -0.380287         1.754734         0.052180
 H        -3.157931         0.643769         2.516376
 H        -3.366465         1.745113         1.015213
 H        -3.194283        -0.323337        -0.479219
 H        -4.260901        -1.927327         1.338206
 H        -2.747680        -2.497371         0.509120
 H        -3.048513        -2.186842         3.412362
 H        -0.894256        -1.450958         3.845794
 H        -0.467525         0.815682         2.635734
 H         0.438690        -0.223020         1.533635
