19
Iteration:  4898charge 0 multiplicity 1
 O        -0.952673         0.961997        -0.179813
 C        -1.633303         0.388162         0.919202
 C        -2.987752         0.918566         1.282696
 C        -2.933907        -0.484702         0.629343
 C        -3.321433        -1.673878         1.386158
 C        -2.335668        -2.020947         2.461865
 O        -0.990776        -2.553384         2.067607
 C        -1.115001        -1.317422         2.878945
 C        -0.690495        -0.009604         2.097146
 H        -0.947010         1.923464        -0.089379
 H        -3.281907         0.999891         2.366096
 H        -3.395889         1.718459         0.654115
 H        -3.352829        -0.323673        -0.413821
 H        -4.445533        -1.693741         1.892178
 H        -3.533818        -2.465554         0.589241
 H        -2.841390        -2.612470         3.234733
 H        -0.936368        -1.570019         3.909484
 H        -0.888244         0.828135         2.772080
 H         0.343100         0.139007         1.825784
