19
Iteration:  3772
 O        -0.896923         1.113602        -0.236929
 C        -1.673145         0.383283         0.891883
 C        -3.043103         0.976245         1.416353
 C        -3.026372        -0.318368         0.619347
 C        -3.107439        -1.772453         1.207217
 C        -2.387211        -2.000972         2.508518
 O        -1.099022        -2.694876         2.368657
 C        -1.111458        -1.307643         2.854111
 C        -0.690564        -0.164376         1.913390
 H        -1.141196         2.034414        -0.249507
 H        -3.386099         0.927292         2.448743
 H        -3.644418         1.591199         0.795311
 H        -3.333216        -0.253359        -0.420201
 H        -4.129696        -2.016991         1.341637
 H        -2.547943        -2.528040         0.536378
 H        -2.954392        -2.308080         3.377638
 H        -0.935235        -0.967094         3.873399
 H        -0.408189         0.628616         2.704661
 H         0.292754        -0.271852         1.374314
