19
Iteration:  2664
 O        -1.085482         1.015082        -0.175387
 C        -1.621396         0.359100         0.933939
 C        -2.943142         1.013417         1.528193
 C        -2.920824        -0.325689         0.660935
 C        -3.095593        -1.674326         1.152225
 C        -2.372165        -2.074486         2.370189
 O        -1.063987        -2.570753         2.391818
 C        -1.278998        -1.214544         2.823075
 C        -0.643615        -0.162209         1.883421
 H        -0.548208         0.421965        -0.723100
 H        -3.230403         0.940492         2.679309
 H        -3.242109         1.879912         0.925165
 H        -3.554204        -0.147855        -0.330674
 H        -4.122964        -2.056217         1.390216
 H        -2.958968        -2.451630         0.288410
 H        -2.849110        -2.460975         3.273674
 H        -1.145063        -1.136127         3.964830
 H        -0.168215         0.733091         2.259403
 H         0.119602        -0.788980         1.411799
