19
Iteration:   556charge 0 multiplicity 1
 O        -0.975074         1.004248        -0.185396
 C        -1.678943         0.264056         0.884963
 C        -3.108153         0.800365         1.047953
 C        -2.918456        -0.505608         0.488359
 C        -3.240662        -1.732132         1.327410
 C        -2.247507        -2.158526         2.520801
 O        -0.892926        -2.351921         2.268145
 C        -1.255017        -1.137637         2.996627
 C        -0.837115         0.046779         2.159808
 H         0.021789         0.880719        -0.139167
 H        -3.536736         0.850105         2.045578
 H        -3.115817         1.832543         0.535987
 H        -2.955115        -0.604447        -0.566699
 H        -4.130911        -1.643342         2.043322
 H        -3.340720        -2.721091         0.749635
 H        -2.793155        -2.957262         3.136818
 H        -0.865318        -1.034546         4.090279
 H        -0.814048         1.059911         2.666618
 H         0.249520         0.068175         1.817519
