19
Iteration:  2022charge 0 multiplicity 1
 O        -0.892147         0.935542        -0.132666
 C        -1.599254         0.394928         0.948483
 C        -3.043757         0.941718         1.271558
 C        -2.938476        -0.458164         0.645782
 C        -3.359424        -1.704441         1.450348
 C        -2.409739        -2.090808         2.553046
 O        -1.039816        -2.463496         2.041415
 C        -1.130124        -1.233826         2.761679
 C        -0.667365        -0.070105         2.023966
 H        -0.333290         1.597896         0.336697
 H        -3.490804         1.044144         2.210979
 H        -3.366272         1.755691         0.603730
 H        -2.973957        -0.308486        -0.475121
 H        -4.316922        -1.481411         1.902223
 H        -3.567602        -2.493986         0.669926
 H        -2.966818        -2.668874         3.401924
 H        -0.775390        -1.466281         3.759266
 H        -0.217150         0.803970         2.566160
 H         0.102010        -0.597333         1.437991
