19
Iteration:   711charge 0 multiplicity 1
 O        -0.839827         0.847015        -0.115942
 C        -1.626326         0.337131         0.990509
 C        -3.045382         0.866507         0.959538
 C        -2.825689        -0.587684         0.601898
 C        -3.354170        -1.734952         1.462065
 C        -2.241241        -1.980217         2.504518
 O        -0.999489        -2.347920         1.949767
 C        -1.033142        -1.205536         2.883739
 C        -1.023719         0.155077         2.374927
 H        -1.053641         0.248414        -0.820226
 H        -3.691846         0.962307         1.833291
 H        -3.178575         1.580623         0.203756
 H        -2.988715        -0.645068        -0.495321
 H        -4.348206        -1.628952         2.000938
 H        -3.286239        -2.762488         1.004256
 H        -2.475027        -2.781663         3.261891
 H        -0.619524        -1.425068         3.840529
 H        -1.658137         0.727221         3.138397
 H        -0.058685         0.634313         2.177829
