19
Iteration:  1066
 O        -1.201162         1.322644        -0.229702
 C        -1.628060         0.416269         0.810937
 C        -2.999360         0.859231         1.322934
 C        -2.837968        -0.425108         0.473419
 C        -2.941736        -1.861897         1.181129
 C        -2.426667        -2.017625         2.518208
 O        -1.119697        -2.549291         2.751763
 C        -1.232340        -1.164408         2.875498
 C        -0.613467        -0.370820         1.761565
 H        -0.813362         2.076079         0.275987
 H        -3.278905         0.755651         2.434566
 H        -3.539783         1.726207         0.969443
 H        -3.017395        -0.450593        -0.591243
 H        -3.963199        -2.332138         1.250989
 H        -2.462233        -2.496816         0.450455
 H        -3.150455        -2.462705         3.207129
 H        -1.157768        -0.770761         3.811995
 H         0.069045         0.425378         2.278601
 H        -0.002233        -0.972660         1.064902
