19
Iteration:  3086charge 0 multiplicity 1
 O        -0.985674         1.095652        -0.087161
 C        -1.673590         0.426756         0.988545
 C        -3.022826         1.014582         1.013438
 C        -2.914105        -0.470102         0.585949
 C        -3.367825        -1.572461         1.578502
 C        -2.275960        -2.115593         2.492334
 O        -1.055028        -2.657924         1.953387
 C        -1.082960        -1.383694         2.861306
 C        -0.674055        -0.008688         2.202580
 H        -0.614789         0.540066        -0.805607
 H        -3.337718         1.229655         2.057648
 H        -3.024598         1.752366         0.238383
 H        -2.918191        -0.825576        -0.414802
 H        -4.178535        -1.198506         2.220026
 H        -3.833291        -2.413590         0.932511
 H        -2.877671        -2.731479         3.289256
 H        -0.616403        -1.590903         3.853475
 H        -0.794658         0.759344         3.034420
 H         0.385369        -0.119929         1.875607
