19
Iteration:  3681charge 0 multiplicity 1
 O        -1.053487         1.125620        -0.147560
 C        -1.652436         0.385792         0.842612
 C        -3.001836         0.841078         1.418051
 C        -2.966662        -0.332191         0.626812
 C        -3.058346        -1.771454         1.129026
 C        -2.436361        -1.917501         2.488201
 O        -1.074255        -2.695270         2.453702
 C        -1.149721        -1.197649         2.812621
 C        -0.657153        -0.196329         1.840624
 H        -0.335289         1.617803         0.285981
 H        -3.103017         0.750488         2.554172
 H        -3.536449         1.727705         0.996744
 H        -3.464976        -0.195914        -0.336547
 H        -4.183845        -1.798374         1.212364
 H        -2.697306        -2.547001         0.387667
 H        -3.051343        -2.216197         3.359322
 H        -1.086844        -1.134366         3.901672
 H        -0.249260         0.740667         2.411439
 H         0.221252        -0.484212         1.254254
