19
Iteration:  1470
 O        -0.880616         0.760366        -0.098004
 C        -1.761382         0.356747         0.952230
 C        -3.005408         1.141307         1.083922
 C        -2.879267        -0.487238         0.631335
 C        -3.269160        -1.750348         1.396713
 C        -2.285092        -2.133225         2.445279
 O        -0.929545        -2.423117         2.080485
 C        -1.131587        -1.230917         2.909750
 C        -0.886711         0.026381         2.164093
 H        -0.887541         1.708635        -0.187895
 H        -3.448919         1.338060         2.100237
 H        -3.285666         1.865134         0.309111
 H        -3.095980        -0.633970        -0.422527
 H        -4.267568        -1.745517         1.772915
 H        -3.430739        -2.528337         0.630762
 H        -2.707839        -2.879775         3.101701
 H        -0.879157        -1.422822         3.949996
 H        -1.209207         0.777449         2.926178
 H         0.212711         0.137309         1.915371
