19
Iteration:  3126
 O        -0.872642         0.891162        -0.084949
 C        -1.685301         0.378140         0.983976
 C        -3.023027         1.002902         1.222043
 C        -2.910865        -0.419894         0.640127
 C        -3.273101        -1.579148         1.477791
 C        -2.313696        -2.099526         2.453550
 O        -1.070689        -2.559563         1.928949
 C        -1.112061        -1.261015         2.782895
 C        -0.798815         0.020934         2.168408
 H        -0.747122         0.084874        -0.609583
 H        -3.273838         1.138793         2.243251
 H        -3.502270         1.787407         0.629388
 H        -3.045772        -0.520376        -0.466350
 H        -4.238853        -1.425182         2.026708
 H        -3.403560        -2.477807         0.916515
 H        -2.604603        -2.642839         3.271928
 H        -0.761853        -1.569239         3.770234
 H        -0.743849         0.780156         2.944963
 H         0.223319         0.123886         1.833555
