19
Iteration:  2633
 O        -1.031694         1.123384        -0.181096
 C        -1.637260         0.463388         0.908110
 C        -2.949831         1.140771         1.390215
 C        -2.980693        -0.361137         0.581736
 C        -3.159816        -1.752526         1.224920
 C        -2.393455        -2.085477         2.512750
 O        -1.024917        -2.671980         2.401332
 C        -1.180320        -1.369348         2.831135
 C        -0.686135        -0.147338         1.916923
 H        -1.079253         0.406571        -0.860252
 H        -3.399593         1.017616         2.456496
 H        -3.275415         2.077707         0.945149
 H        -3.350235        -0.115348        -0.452381
 H        -4.248301        -2.119648         1.269683
 H        -2.575281        -2.350506         0.466863
 H        -2.922633        -2.522604         3.305246
 H        -0.931456        -1.253483         3.952196
 H        -0.199626         0.674105         2.418801
 H         0.140127        -0.600662         1.412227
