19
Iteration:  4089charge 0 multiplicity 1
 O        -0.934670         0.856346        -0.217790
 C        -1.648481         0.391127         1.004227
 C        -3.024664         1.015990         1.181140
 C        -2.875431        -0.429403         0.640872
 C        -3.313197        -1.626040         1.400143
 C        -2.314242        -2.138877         2.502908
 O        -1.021986        -2.575517         2.024366
 C        -1.050711        -1.313345         2.771272
 C        -0.787117         0.052308         2.280708
 H        -1.232417         1.738970        -0.361280
 H        -3.250108         1.307622         2.214142
 H        -3.420135         1.643933         0.440624
 H        -3.132652        -0.455447        -0.456372
 H        -4.381496        -1.461289         1.704364
 H        -3.459207        -2.409469         0.711990
 H        -2.756746        -2.671508         3.330838
 H        -0.762521        -1.433721         3.870970
 H        -0.975870         0.775579         3.130082
 H         0.256621         0.130904         1.943976
