19
Iteration:  4541charge 0 multiplicity 1
 O        -0.881937         1.137948        -0.147178
 C        -1.646339         0.370456         0.827857
 C        -2.989188         0.791218         1.423411
 C        -2.900594        -0.465051         0.576051
 C        -3.217580        -1.805230         1.306334
 C        -2.426897        -2.036688         2.486976
 O        -1.101159        -2.485437         2.266135
 C        -1.212359        -1.205669         2.866882
 C        -0.664121        -0.127552         1.851896
 H        -0.896317         1.891496         0.424453
 H        -3.069738         1.084805         2.514628
 H        -3.404867         1.656130         0.948715
 H        -3.416043        -0.231192        -0.334337
 H        -4.294508        -1.927228         1.699456
 H        -3.148724        -2.660825         0.610119
 H        -2.925077        -2.450350         3.342737
 H        -0.980809        -1.242428         3.891589
 H        -0.336437         0.800976         2.345034
 H         0.292891        -0.528465         1.393672
