19
Iteration:  2695
 O        -0.999275         1.204560        -0.185762
 C        -1.615062         0.379615         0.866170
 C        -2.918859         0.772142         1.485731
 C        -2.904944        -0.381330         0.600495
 C        -3.260966        -1.786085         1.180769
 C        -2.477646        -1.939011         2.511997
 O        -1.148231        -2.544708         2.336251
 C        -1.142158        -1.238608         2.827325
 C        -0.597272        -0.152755         1.913379
 H        -0.291747         0.877760        -0.779252
 H        -2.923805         0.639143         2.613780
 H        -3.489566         1.598232         1.072875
 H        -3.543849        -0.358741        -0.299695
 H        -4.285052        -1.957189         1.474159
 H        -2.965614        -2.629393         0.508187
 H        -2.966600        -2.266628         3.511471
 H        -0.788043        -1.259679         3.870687
 H        -0.235292         0.739109         2.464333
 H         0.249374        -0.684897         1.345382
