19
Iteration:  2374charge 0 multiplicity 1
 O        -0.888286         0.860186        -0.135897
 C        -1.645015         0.327017         0.961749
 C        -3.106342         1.048170         1.177196
 C        -2.833107        -0.452038         0.589036
 C        -3.355169        -1.512573         1.566584
 C        -2.317767        -2.096332         2.505452
 O        -1.030341        -2.510654         1.915684
 C        -1.062910        -1.326332         2.808210
 C        -0.822882        -0.013150         2.163092
 H        -0.289990         1.523575         0.180496
 H        -3.419282         0.956740         2.196483
 H        -3.628679         1.582762         0.371458
 H        -3.160167        -0.743168        -0.434926
 H        -4.259607        -1.209804         2.160107
 H        -3.651758        -2.418151         0.933689
 H        -2.715529        -2.929278         3.248718
 H        -0.540010        -1.606143         3.689777
 H        -0.713676         0.758342         2.910354
 H         0.201853        -0.113963         1.816957
