19
Iteration:  1809charge 0 multiplicity 1
 O        -0.895604         1.081558        -0.138588
 C        -1.711334         0.369412         0.799129
 C        -3.031135         0.869423         1.502351
 C        -2.968478        -0.299606         0.594107
 C        -3.074833        -1.741830         1.142160
 C        -2.439848        -2.002808         2.466731
 O        -1.026395        -2.541127         2.466781
 C        -1.282082        -1.196805         2.874703
 C        -0.617137        -0.275429         1.825840
 H        -1.440626         1.293813        -0.962732
 H        -2.849580         0.737795         2.632602
 H        -3.429973         1.897634         1.263074
 H        -3.487565         0.024013        -0.379953
 H        -4.160870        -1.990571         1.285726
 H        -2.678874        -2.404338         0.406292
 H        -3.029855        -2.330428         3.299847
 H        -1.114738        -0.968311         3.948398
 H        -0.172088         0.569223         2.291176
 H         0.022266        -1.050443         1.331717
