19
Iteration:  2585charge 0 multiplicity 1
 O        -1.066110         1.196899        -0.078496
 C        -1.544443         0.335840         0.972162
 C        -2.965875         0.767790         1.359498
 C        -2.919552        -0.499052         0.466603
 C        -3.329689        -1.741071         1.275330
 C        -2.445681        -1.940252         2.589674
 O        -1.126121        -2.526332         2.228447
 C        -1.153248        -1.225961         2.763532
 C        -0.538885        -0.122651         1.932102
 H        -0.262800         0.834115        -0.445432
 H        -3.223116         0.676142         2.396415
 H        -3.172915         1.866221         1.074466
 H        -3.067505        -0.359451        -0.564037
 H        -4.304041        -1.436614         1.686189
 H        -3.456398        -2.741857         0.744357
 H        -2.749593        -2.432277         3.606268
 H        -0.760857        -1.196549         3.761625
 H        -0.125801         0.700149         2.529251
 H         0.360006        -0.437003         1.322655
