19
Iteration:  4907charge 0 multiplicity 1
 O        -0.892796         0.958518        -0.159764
 C        -1.683494         0.391919         0.872209
 C        -3.043348         0.942786         1.290268
 C        -2.955495        -0.378185         0.626322
 C        -3.347982        -1.711602         1.356777
 C        -2.327099        -2.029616         2.505106
 O        -1.020047        -2.558408         2.086104
 C        -1.065662        -1.326528         2.842820
 C        -0.716682        -0.038034         2.107323
 H        -0.806982         1.918485        -0.047539
 H        -3.304393         1.075714         2.298884
 H        -3.572785         1.579881         0.557345
 H        -3.416127        -0.518290        -0.421155
 H        -4.337003        -1.724391         1.911826
 H        -3.089482        -2.502415         0.609675
 H        -2.661797        -2.690982         3.372608
 H        -0.637052        -1.349087         3.826623
 H        -0.786428         0.698129         2.919960
 H         0.302511        -0.011081         1.750207
