19
Iteration:  1737charge 0 multiplicity 1
 O        -1.066605         1.225660        -0.048113
 C        -1.729650         0.365584         0.852348
 C        -3.039812         0.823858         1.340723
 C        -2.860547        -0.430708         0.440528
 C        -3.085355        -1.737769         1.193551
 C        -2.417575        -1.894894         2.568749
 O        -1.160599        -2.611234         2.455854
 C        -1.127767        -1.220475         2.841203
 C        -0.580685        -0.248433         1.824023
 H        -0.106647         1.099531        -0.076117
 H        -3.050343         0.719406         2.388262
 H        -3.384658         1.864507         0.978317
 H        -3.193633        -0.460542        -0.593261
 H        -4.186385        -1.727557         1.341032
 H        -2.874289        -2.741334         0.661163
 H        -2.911522        -2.203836         3.556110
 H        -1.019723        -0.975106         3.901644
 H        -0.053560         0.559846         2.406581
 H        -0.094204        -0.754208         1.004374
