19
Iteration:  1289
 O        -0.759342         0.895799        -0.077113
 C        -1.781608         0.406603         0.911287
 C        -3.135626         0.913657         1.033666
 C        -2.932767        -0.516456         0.558022
 C        -3.348156        -1.740355         1.432913
 C        -2.242761        -2.118810         2.463905
 O        -0.920179        -2.446223         2.194300
 C        -1.152641        -1.191475         2.881842
 C        -0.806617         0.020807         2.143258
 H        -1.191973         1.783613        -0.256118
 H        -3.438128         1.146054         2.079268
 H        -3.569075         1.661474         0.415608
 H        -3.075855        -0.668303        -0.495322
 H        -4.293974        -1.368023         1.841206
 H        -3.314683        -2.567994         0.743630
 H        -2.832760        -2.904440         3.030320
 H        -0.766200        -1.048795         3.902605
 H        -0.607284         0.887709         2.861487
 H         0.179923        -0.315777         1.722799
