19
Iteration:  1462charge 0 multiplicity 1
 O        -0.866425         0.763450        -0.114741
 C        -1.685282         0.333430         0.966986
 C        -3.086969         1.078231         1.098771
 C        -2.879684        -0.511709         0.652044
 C        -3.300601        -1.715337         1.384383
 C        -2.279558        -2.088225         2.437452
 O        -0.972333        -2.425404         2.084955
 C        -1.139140        -1.276178         2.826743
 C        -0.889781         0.078412         2.190821
 H        -0.818173         1.677697         0.187768
 H        -3.401504         1.255190         2.080445
 H        -3.212558         1.662982         0.126196
 H        -2.982260        -0.492943        -0.413414
 H        -4.267378        -1.584144         1.821319
 H        -3.276262        -2.555251         0.677552
 H        -2.511758        -2.786681         3.341123
 H        -0.639488        -1.358983         3.752908
 H        -1.076535         0.822630         2.915853
 H         0.145297         0.250000         2.112105
