19
Iteration:   415charge 0 multiplicity 1
 O        -1.134551         1.102834        -0.223336
 C        -1.698234         0.352192         0.906716
 C        -3.072783         0.774640         1.141194
 C        -2.863557        -0.527332         0.427366
 C        -3.019751        -1.850436         1.174085
 C        -2.331665        -1.927632         2.559483
 O        -1.110042        -2.542717         2.560600
 C        -1.169631        -1.113789         2.991459
 C        -0.659697        -0.037241         1.955156
 H        -0.742766         1.976203         0.084663
 H        -3.537555         0.687393         2.187786
 H        -3.285084         1.693418         0.636198
 H        -2.909658        -0.548989        -0.615147
 H        -4.031326        -2.222446         1.171610
 H        -2.349184        -2.478626         0.557674
 H        -3.093090        -2.381112         3.328800
 H        -0.911784        -0.863011         4.056285
 H        -0.276249         0.756765         2.630348
 H         0.227061        -0.534600         1.524500
