19
Iteration:  3784
 O        -0.957366         0.987353        -0.138632
 C        -1.695443         0.465274         0.870825
 C        -3.010460         0.981578         1.403885
 C        -2.939106        -0.385839         0.663730
 C        -3.073763        -1.799188         1.170596
 C        -2.358321        -2.052646         2.500995
 O        -1.111980        -2.635622         2.344889
 C        -1.199840        -1.216580         2.819063
 C        -0.658290        -0.091487         1.904108
 H        -1.121004         1.970667        -0.147566
 H        -3.213944         1.120264         2.451789
 H        -3.337780         1.776827         0.828109
 H        -3.569170        -0.240738        -0.243370
 H        -4.103995        -1.977542         1.371163
 H        -2.912131        -2.504739         0.306154
 H        -2.996151        -2.452081         3.277832
 H        -0.864803        -1.367260         3.813343
 H        -0.389690         0.874854         2.477938
 H         0.246061        -0.556617         1.388826
