19
Iteration:  2495charge 0 multiplicity 1
 O        -0.938318         0.896507        -0.216516
 C        -1.713973         0.369929         0.914678
 C        -2.970710         1.038082         1.349967
 C        -2.957106        -0.319044         0.644947
 C        -3.221063        -1.655081         1.326907
 C        -2.352324        -2.088678         2.501357
 O        -1.020644        -2.524259         2.121898
 C        -1.100971        -1.313921         2.881003
 C        -0.765450        -0.027917         2.109135
 H        -1.398979         0.471114        -0.976325
 H        -3.012161         0.781909         2.443021
 H        -3.278336         1.852106         0.718769
 H        -3.104618        -0.156452        -0.464260
 H        -4.292246        -1.878312         1.474722
 H        -2.948209        -2.383684         0.493655
 H        -2.896857        -2.865286         3.282260
 H        -0.925500        -1.355907         3.943869
 H        -0.733185         0.801543         2.892312
 H         0.319530        -0.167583         1.787757
