19
Iteration:  1293
 O        -0.751357         0.855805        -0.069799
 C        -1.770747         0.417484         0.933170
 C        -3.160608         0.925492         1.078733
 C        -2.913298        -0.521315         0.555261
 C        -3.309096        -1.706148         1.414455
 C        -2.260735        -2.161460         2.506348
 O        -0.936019        -2.389795         2.159176
 C        -1.181567        -1.190824         2.876483
 C        -0.810436         0.028100         2.128720
 H        -1.150929         1.669694        -0.367705
 H        -3.467177         1.074631         2.094567
 H        -3.559400         1.637700         0.271299
 H        -3.132943        -0.674746        -0.507614
 H        -4.285981        -1.419507         1.759670
 H        -3.304721        -2.660134         0.806773
 H        -2.713264        -2.972360         2.988253
 H        -0.706279        -1.138146         3.932124
 H        -0.576349         0.885450         2.789610
 H         0.186912        -0.264755         1.706327
