19
Iteration:  1730charge 0 multiplicity 1
 O        -1.041171         1.239196        -0.011400
 C        -1.688713         0.366825         0.825424
 C        -3.041217         0.848767         1.347563
 C        -2.850067        -0.469535         0.500373
 C        -3.147722        -1.753450         1.206167
 C        -2.383779        -1.911602         2.562688
 O        -1.142803        -2.609849         2.446078
 C        -1.149253        -1.151984         2.803233
 C        -0.635232        -0.268775         1.815775
 H        -0.117821         0.862129        -0.147380
 H        -3.233436         0.784519         2.413735
 H        -3.524059         1.657828         0.818839
 H        -3.165489        -0.304685        -0.517036
 H        -4.247466        -1.823215         1.226970
 H        -2.856499        -2.577835         0.575044
 H        -2.943061        -2.224493         3.493944
 H        -0.912827        -0.902689         3.849865
 H         0.005987         0.489590         2.229023
 H         0.084013        -0.854019         1.196363
