19
Iteration:  1063charge 0 multiplicity 1
 O        -1.212252         1.305460        -0.240473
 C        -1.610750         0.417852         0.809938
 C        -2.999918         0.867017         1.351607
 C        -2.814850        -0.442184         0.451082
 C        -2.943651        -1.852053         1.168384
 C        -2.415998        -1.978746         2.508319
 O        -1.122451        -2.566775         2.753234
 C        -1.229168        -1.188147         2.904849
 C        -0.645449        -0.337127         1.761036
 H        -0.877944         2.034377         0.271591
 H        -3.279919         0.758656         2.412807
 H        -3.555216         1.796593         1.007438
 H        -3.110798        -0.446497        -0.625895
 H        -3.911464        -2.334810         1.176219
 H        -2.421922        -2.460072         0.412814
 H        -3.098321        -2.448154         3.241349
 H        -1.117307        -0.849290         3.990717
 H         0.077197         0.374009         2.160680
 H        -0.036974        -0.984221         1.115401
