19
Iteration:  1399
 O        -0.917657         0.925237        -0.100813
 C        -1.669762         0.391583         0.989904
 C        -3.043564         0.931289         0.949927
 C        -2.888752        -0.551291         0.555326
 C        -3.387411        -1.678206         1.568677
 C        -2.297153        -2.130227         2.419920
 O        -0.931041        -2.435183         1.987216
 C        -1.137950        -1.248218         2.880459
 C        -0.802823         0.086452         2.249188
 H        -0.108347         1.054080         0.372750
 H        -3.602136         1.312943         1.784261
 H        -3.192106         1.635293         0.017927
 H        -2.979681        -0.802048        -0.503913
 H        -4.365040        -1.550872         2.222818
 H        -3.714202        -2.662473         1.150491
 H        -2.753091        -2.805277         3.219757
 H        -0.812403        -1.424505         3.955999
 H        -1.038034         0.862878         3.053535
 H         0.281793         0.016379         1.988887
