19
Iteration:  3127charge 0 multiplicity 1
 O        -0.868493         0.888785        -0.086610
 C        -1.688477         0.368084         0.979588
 C        -3.018082         1.012278         1.224663
 C        -2.909534        -0.417766         0.640049
 C        -3.286390        -1.587450         1.478637
 C        -2.311051        -2.101249         2.450366
 O        -1.072395        -2.554701         1.926774
 C        -1.101893        -1.254558         2.784022
 C        -0.799259         0.029981         2.169492
 H        -0.716001         0.096050        -0.603677
 H        -3.266894         1.086183         2.265753
 H        -3.510476         1.766749         0.637039
 H        -3.064224        -0.506747        -0.447011
 H        -4.242926        -1.458124         2.040184
 H        -3.407296        -2.502001         0.888245
 H        -2.646436        -2.654082         3.282128
 H        -0.789865        -1.567718         3.783865
 H        -0.727294         0.780652         2.950791
 H         0.208237         0.116745         1.847688
