19
Iteration:  3785
 O        -0.964152         0.979399        -0.132469
 C        -1.701169         0.466425         0.872280
 C        -3.008874         0.980470         1.401087
 C        -2.927465        -0.391271         0.666766
 C        -3.079589        -1.797744         1.173915
 C        -2.358565        -2.058268         2.493058
 O        -1.108983        -2.628645         2.343628
 C        -1.205226        -1.211713         2.813370
 C        -0.659996        -0.088891         1.912055
 H        -1.117154         1.963683        -0.142323
 H        -3.145618         1.119008         2.454351
 H        -3.298930         1.786218         0.831462
 H        -3.565182        -0.235117        -0.268860
 H        -4.127964        -1.965204         1.354868
 H        -2.901644        -2.486117         0.323743
 H        -3.004233        -2.468948         3.257756
 H        -0.836930        -1.338334         3.809204
 H        -0.367731         0.879697         2.466105
 H         0.230405        -0.570680         1.368134
