19
Iteration:  2212
 O        -0.927464         0.912730        -0.052641
 C        -1.652863         0.336833         1.016219
 C        -3.013075         0.984163         1.125670
 C        -2.922671        -0.503009         0.659035
 C        -3.435960        -1.524877         1.553438
 C        -2.358866        -2.004567         2.545225
 O        -1.000158        -2.547695         1.836847
 C        -1.031231        -1.383078         2.726649
 C        -0.784227         0.054347         2.137638
 H        -0.008929         0.575007         0.073257
 H        -3.198817         1.353531         2.159479
 H        -3.126308         1.670211         0.258824
 H        -3.183240        -0.504295        -0.390640
 H        -4.235553        -1.168806         2.175643
 H        -3.829508        -2.438207         1.046061
 H        -2.543040        -2.826467         3.231377
 H        -0.483979        -1.482843         3.695297
 H        -0.971426         0.615544         3.085184
 H         0.210504        -0.060701         1.757219
