19
Iteration:  2477charge 0 multiplicity 1
 O        -0.925327         0.815049        -0.168119
 C        -1.579326         0.355871         0.997114
 C        -2.993716         0.975700         1.406701
 C        -2.901377        -0.384133         0.655351
 C        -3.304783        -1.710049         1.303689
 C        -2.330737        -2.075000         2.442669
 O        -1.013761        -2.410388         2.048104
 C        -1.234587        -1.227336         2.842812
 C        -0.695566         0.033870         2.100135
 H        -1.380384         0.479585        -0.987224
 H        -3.271520         0.940862         2.463588
 H        -3.389483         1.840141         0.837430
 H        -3.326551        -0.408576        -0.312135
 H        -4.360951        -1.653128         1.632957
 H        -3.362147        -2.565504         0.609236
 H        -2.814476        -2.661764         3.138208
 H        -0.786195        -1.466182         3.816981
 H        -0.604431         0.824848         2.812285
 H         0.215556        -0.334868         1.743548
