19
Iteration:  2059
 O        -0.966332         1.022718        -0.158736
 C        -1.652766         0.374486         0.936687
 C        -2.969108         0.979616         1.135493
 C        -2.865773        -0.386795         0.508687
 C        -3.269706        -1.512140         1.461234
 C        -2.308703        -2.078992         2.589006
 O        -1.105461        -2.650493         2.066355
 C        -1.029582        -1.465745         2.854063
 C        -0.791855        -0.041592         2.137691
 H        -1.577204         1.809805        -0.259843
 H        -3.480086         0.941619         2.156063
 H        -3.249792         1.758267         0.452140
 H        -3.115747        -0.674419        -0.462980
 H        -4.128723        -1.145293         2.098615
 H        -3.663621        -2.399297         0.950375
 H        -2.711645        -2.647797         3.422879
 H        -0.486789        -1.526022         3.804580
 H        -0.610808         0.775335         2.935739
 H         0.231906        -0.189324         1.715469
