19
Iteration:  1981charge 0 multiplicity 1
 O        -1.082493         0.941065        -0.287023
 C        -1.548063         0.352071         0.981127
 C        -2.934324         0.958817         1.397698
 C        -2.963418        -0.279410         0.633916
 C        -3.278568        -1.678572         1.217316
 C        -2.375182        -2.031896         2.504763
 O        -1.018806        -2.606367         2.224277
 C        -1.173105        -1.315769         2.787149
 C        -0.720962        -0.011223         2.111866
 H        -0.171398         0.551426        -0.491668
 H        -3.042151         0.939168         2.448208
 H        -3.292541         1.931859         0.926169
 H        -3.189586        -0.305879        -0.512415
 H        -4.307026        -1.586559         1.612080
 H        -3.009805        -2.521052         0.490316
 H        -2.861686        -2.657260         3.292369
 H        -0.662649        -1.246091         3.792514
 H        -0.828140         0.811685         2.946498
 H         0.305470        -0.110373         1.707788
