19
Iteration:   482charge 0 multiplicity 1
 O        -0.939926         0.965615        -0.088299
 C        -1.689813         0.299115         0.883863
 C        -3.173567         0.775920         1.200914
 C        -2.841137        -0.529571         0.497593
 C        -3.099574        -1.801315         1.183455
 C        -2.364583        -1.921022         2.535579
 O        -0.964914        -2.371602         2.400205
 C        -1.154710        -1.113183         2.910796
 C        -0.808755        -0.066944         2.025636
 H        -1.571046         1.376912        -0.664836
 H        -3.495943         0.730704         2.255939
 H        -3.356458         1.707292         0.568165
 H        -2.953256        -0.667458        -0.601475
 H        -4.150903        -1.896090         1.408257
 H        -2.672770        -2.608577         0.582975
 H        -2.882137        -2.446898         3.429355
 H        -0.927032        -0.959376         3.986067
 H        -0.674533         0.926546         2.426467
 H         0.156665        -0.289567         1.592718
