19
Iteration:  4437
 O        -1.000355         1.150070        -0.126441
 C        -1.679204         0.367419         0.909773
 C        -3.022767         0.813392         1.501270
 C        -3.015029        -0.402376         0.513763
 C        -3.124146        -1.756940         1.167193
 C        -2.398277        -1.938420         2.435079
 O        -1.042668        -2.584770         2.454641
 C        -1.232862        -1.107019         2.830372
 C        -0.615406        -0.249354         1.771731
 H        -0.279983         1.575710         0.409384
 H        -2.998654         0.645950         2.633294
 H        -3.359524         1.768227         1.228272
 H        -3.133994        -0.444469        -0.586630
 H        -4.143509        -1.841135         1.552098
 H        -2.934605        -2.541616         0.413980
 H        -3.116818        -2.402247         3.190684
 H        -0.932184        -0.937522         3.947261
 H         0.156459         0.400238         2.188367
 H        -0.120775        -0.891255         1.043006
