19
Iteration:  2551
 O        -1.048734         1.160443        -0.166275
 C        -1.642547         0.396849         0.933746
 C        -3.019593         0.889193         1.294097
 C        -2.858489        -0.418542         0.568316
 C        -3.256498        -1.692727         1.325925
 C        -2.365522        -2.012540         2.594550
 O        -1.069871        -2.563784         2.185242
 C        -1.147557        -1.302126         2.863726
 C        -0.639552        -0.155675         1.946587
 H        -0.155580         0.858736        -0.258437
 H        -3.314924         0.941465         2.369059
 H        -3.352733         1.763155         0.759190
 H        -3.171764        -0.368324        -0.448591
 H        -4.246858        -1.415335         1.714320
 H        -3.407758        -2.605540         0.672354
 H        -3.027983        -2.570232         3.356110
 H        -0.774864        -1.381006         3.851755
 H        -0.286116         0.613221         2.659572
 H         0.192761        -0.736673         1.513161
