19
Iteration:  1630charge 0 multiplicity 1
 O        -0.948899         0.950272        -0.143374
 C        -1.665716         0.335693         0.846803
 C        -3.063584         0.931293         1.341522
 C        -2.881910        -0.390954         0.565789
 C        -3.136996        -1.777857         1.246529
 C        -2.393244        -2.071011         2.507700
 O        -1.072010        -2.455009         2.319063
 C        -1.235144        -1.189323         2.809503
 C        -0.675430        -0.118419         2.006566
 H        -0.833691         1.876634         0.050551
 H        -3.200130         0.970336         2.426148
 H        -3.415447         1.821937         0.768164
 H        -3.330271        -0.238791        -0.424132
 H        -4.226409        -1.861727         1.443010
 H        -2.792218        -2.554511         0.549761
 H        -2.952237        -2.598689         3.418890
 H        -0.822729        -1.170549         3.855796
 H        -0.276266         0.771771         2.515611
 H         0.209744        -0.486085         1.510413
