19
Iteration:    50charge 0 multiplicity 1
 O        -0.798890         0.668840        -0.133469
 C        -1.740382         0.350518         0.900896
 C        -3.144521         0.939335         0.816037
 C        -2.829008        -0.559934         0.572313
 C        -3.231875        -1.766878         1.452485
 C        -2.205709        -2.151890         2.508043
 O        -0.798791        -2.239242         2.100403
 C        -1.219132        -1.173713         3.001464
 C        -1.106567         0.147425         2.340771
 H        -0.980119         1.611090        -0.400239
 H        -3.597736         1.244325         1.778586
 H        -3.441237         1.689235         0.008152
 H        -2.615652        -0.873627        -0.533583
 H        -4.150154        -1.499024         2.004303
 H        -3.524951        -2.646110         0.820679
 H        -2.550243        -2.962271         3.192468
 H        -0.916038        -1.209856         4.079986
 H        -1.508388         0.935948         3.061006
 H        -0.006807         0.503136         2.227779
