19
Iteration:  2408
 O        -1.012059         1.021675        -0.136005
 C        -1.666474         0.417906         0.976218
 C        -3.016225         1.049149         1.066085
 C        -2.830728        -0.437951         0.630065
 C        -3.363502        -1.575266         1.540779
 C        -2.307587        -2.093289         2.528585
 O        -1.038969        -2.673314         2.046925
 C        -1.049052        -1.405421         2.708806
 C        -0.744263         0.003920         2.232337
 H        -0.114635         0.703158        -0.224435
 H        -3.580200         1.379034         1.964146
 H        -3.441970         1.725046         0.274078
 H        -2.970885        -0.567829        -0.474488
 H        -4.342331        -1.500657         2.072791
 H        -3.559238        -2.424653         0.785893
 H        -2.836460        -2.729628         3.367014
 H        -0.415950        -1.401229         3.580464
 H        -1.005438         0.781488         2.880241
 H         0.221476         0.042047         1.819794
