19
Iteration:  3209charge 0 multiplicity 1
 O        -0.890764         0.918039        -0.065105
 C        -1.677025         0.392754         0.990674
 C        -3.075723         1.044500         1.116357
 C        -2.921453        -0.346518         0.685804
 C        -3.344199        -1.582391         1.494526
 C        -2.258642        -2.033052         2.459916
 O        -0.955927        -2.621274         1.960748
 C        -1.105441        -1.355835         2.782343
 C        -0.806234        -0.010919         2.174738
 H        -0.782992         0.257012        -0.764902
 H        -3.433306         1.020999         2.137521
 H        -3.210099         1.686557         0.208404
 H        -3.151787        -0.557729        -0.387120
 H        -4.226853        -1.354624         2.111901
 H        -3.619488        -2.523064         0.902906
 H        -2.899696        -2.588901         3.191302
 H        -0.636679        -1.571820         3.715253
 H        -1.075472         0.703358         2.957969
 H         0.260151        -0.027368         1.958762
