19
Iteration:  2971
 O        -0.873550         0.898244        -0.106226
 C        -1.661559         0.402458         0.893477
 C        -2.987877         1.084261         1.276139
 C        -2.941625        -0.314246         0.684673
 C        -3.354544        -1.647953         1.394548
 C        -2.258168        -2.123840         2.439776
 O        -0.941063        -2.581709         2.082188
 C        -1.134316        -1.367920         2.808438
 C        -0.860054         0.003822         2.106332
 H        -0.930766         0.178291        -0.809301
 H        -3.347139         1.230611         2.363026
 H        -3.578313         1.651961         0.602916
 H        -3.222465        -0.412959        -0.372074
 H        -4.316861        -1.585845         2.117952
 H        -3.593658        -2.355404         0.607811
 H        -2.763918        -2.734654         3.109119
 H        -0.750858        -1.102782         3.811687
 H        -0.839471         0.781979         2.883554
 H         0.170351        -0.063154         1.645597
