19
Iteration:  3388charge 0 multiplicity 1
 O        -0.967656         0.896697        -0.105056
 C        -1.660333         0.429096         1.036762
 C        -3.060109         0.899754         1.106685
 C        -2.809006        -0.490228         0.547412
 C        -3.369379        -1.603207         1.497411
 C        -2.384682        -2.102167         2.565461
 O        -1.012269        -2.427245         1.937799
 C        -1.074301        -1.336059         2.778896
 C        -0.761597        -0.033153         2.153350
 H        -0.178259         1.331715         0.317541
 H        -3.354859         1.071919         2.153893
 H        -3.527130         1.697415         0.493725
 H        -2.775016        -0.688956        -0.590312
 H        -4.163321        -1.026201         2.048828
 H        -3.692357        -2.384920         0.809884
 H        -2.531393        -2.709564         3.473852
 H        -0.787997        -1.507656         3.823161
 H        -0.746713         0.634090         3.010860
 H         0.269785        -0.009413         1.708060
