19
Iteration:   423charge 0 multiplicity 1
 O        -1.121687         1.134567        -0.210298
 C        -1.631071         0.393873         0.822733
 C        -3.078071         0.799687         1.142985
 C        -2.797622        -0.527706         0.425227
 C        -3.040497        -1.826788         1.213561
 C        -2.416961        -2.064866         2.632725
 O        -1.062180        -2.517099         2.560008
 C        -1.214439        -1.102771         3.006671
 C        -0.638032        -0.063367         1.904706
 H        -1.010068         2.104759        -0.012341
 H        -3.416426         0.825164         2.150123
 H        -3.401243         1.693784         0.695287
 H        -3.128249        -0.597179        -0.603045
 H        -4.079973        -2.192579         1.134975
 H        -2.611664        -2.678598         0.617758
 H        -3.032037        -2.626484         3.308805
 H        -1.035079        -1.014947         4.081551
 H        -0.512674         0.823903         2.465724
 H         0.370246        -0.420342         1.607942
