19
Iteration:  4612charge 0 multiplicity 1
 O        -1.051974         0.976242        -0.231964
 C        -1.638995         0.358093         0.966431
 C        -3.003250         0.939917         1.346118
 C        -2.820112        -0.441723         0.586527
 C        -3.152179        -1.705196         1.305238
 C        -2.405091        -2.026897         2.518013
 O        -1.099989        -2.605667         2.172163
 C        -1.140273        -1.322632         2.824244
 C        -0.714845         0.046478         2.064519
 H        -0.812467         1.889998        -0.091592
 H        -3.144031         1.026154         2.388976
 H        -3.146263         1.932214         0.866991
 H        -3.163603        -0.460883        -0.442609
 H        -4.207484        -1.603032         1.372859
 H        -3.034515        -2.577502         0.631153
 H        -2.823320        -2.615156         3.365603
 H        -1.071509        -1.319233         3.938516
 H        -0.530028         0.845581         2.860451
 H         0.261382        -0.141203         1.545808
