19
Iteration:  3459charge 0 multiplicity 1
 O        -0.976372         0.800437        -0.164243
 C        -1.646034         0.417482         0.976123
 C        -3.073361         0.980396         1.289277
 C        -2.900649        -0.336362         0.574682
 C        -3.267663        -1.628512         1.294523
 C        -2.300071        -2.059760         2.442653
 O        -1.022769        -2.545493         2.104581
 C        -1.114535        -1.300228         2.874075
 C        -0.699879        -0.059199         2.145647
 H        -1.148353         1.748857        -0.378216
 H        -3.291103         0.893134         2.361113
 H        -3.468249         1.861251         0.858350
 H        -3.253698        -0.346349        -0.453237
 H        -4.201639        -1.528392         1.771713
 H        -3.154813        -2.466421         0.628782
 H        -2.863733        -2.400768         3.317877
 H        -0.882118        -1.497794         3.928722
 H        -0.608474         0.850225         2.823455
 H         0.293218        -0.276779         1.743504
