19
Iteration:  4154
 O        -0.982868         0.856931        -0.179053
 C        -1.758521         0.342459         1.055050
 C        -3.078385         0.985847         1.266685
 C        -2.838481        -0.473346         0.581220
 C        -3.300921        -1.621805         1.324709
 C        -2.333197        -2.058282         2.519568
 O        -1.027560        -2.494203         2.080434
 C        -1.090987        -1.291328         2.767902
 C        -0.709931         0.036712         2.103093
 H        -0.292322         1.413237         0.279407
 H        -3.593500         0.946238         2.234297
 H        -3.232020         1.855355         0.706053
 H        -2.827837        -0.498283        -0.505842
 H        -4.354033        -1.519671         1.729358
 H        -3.271457        -2.441164         0.674116
 H        -2.612642        -2.623011         3.364090
 H        -0.764118        -1.407531         3.849311
 H        -0.406887         0.664931         3.019477
 H         0.244700        -0.149165         1.617028
