19
Iteration:  3357charge 0 multiplicity 1
 O        -0.916988         0.725309        -0.159030
 C        -1.690660         0.337884         1.005486
 C        -3.029094         0.964635         1.153540
 C        -2.877635        -0.360284         0.628246
 C        -3.327254        -1.564202         1.441790
 C        -2.252631        -2.142559         2.484650
 O        -1.029668        -2.412769         1.894614
 C        -1.066384        -1.333555         2.828900
 C        -0.807245         0.032689         2.302714
 H        -0.741300         1.646015         0.025316
 H        -3.341565         1.242829         2.195011
 H        -3.421667         1.652501         0.312236
 H        -3.238330        -0.608418        -0.389684
 H        -4.301479        -1.531332         1.967866
 H        -3.504444        -2.298469         0.686807
 H        -2.666197        -2.700550         3.351924
 H        -0.801543        -1.521075         3.946315
 H        -1.014763         0.857912         3.025405
 H         0.199628         0.127151         1.771705
