19
Iteration:  1916
 O        -0.882035         1.046161        -0.052241
 C        -1.722853         0.327434         0.895925
 C        -3.020492         0.919960         1.326497
 C        -2.940378        -0.427799         0.570719
 C        -3.241757        -1.752875         1.270039
 C        -2.381238        -1.929344         2.550650
 O        -1.101255        -2.575380         2.256391
 C        -1.109218        -1.199041         2.800282
 C        -0.607976        -0.168317         1.895941
 H        -1.433588         1.849338        -0.177305
 H        -3.188911         0.821121         2.387686
 H        -3.412454         1.846395         0.825637
 H        -3.298582        -0.284113        -0.512822
 H        -4.290299        -1.611873         1.693924
 H        -3.350273        -2.659276         0.644864
 H        -2.927394        -2.529608         3.279368
 H        -0.824202        -1.101127         3.890683
 H        -0.074867         0.686308         2.369450
 H         0.228802        -0.701113         1.432066
