19
Iteration:  1518
 O        -0.861180         0.819285        -0.064626
 C        -1.666412         0.405334         0.943864
 C        -2.999436         0.930760         1.237746
 C        -2.867520        -0.439477         0.535784
 C        -3.268227        -1.779078         1.303280
 C        -2.337661        -2.071512         2.456518
 O        -0.947679        -2.470275         2.150432
 C        -1.208055        -1.196502         2.830017
 C        -0.818716         0.125065         2.136513
 H        -1.473781         0.966776        -0.837303
 H        -3.222101         1.017110         2.302101
 H        -3.581909         1.653730         0.621850
 H        -3.085699        -0.372262        -0.538919
 H        -4.207501        -1.568425         1.765413
 H        -3.612843        -2.669656         0.787467
 H        -2.712643        -2.683851         3.374390
 H        -1.058063        -1.376973         3.879382
 H        -0.889348         0.879788         2.881426
 H         0.196767        -0.034986         1.883443
