19
Iteration:  3434
 O        -0.952478         0.960290        -0.144291
 C        -1.637941         0.385358         0.921134
 C        -2.988483         1.054460         1.156008
 C        -2.893724        -0.392338         0.588537
 C        -3.361215        -1.673108         1.424979
 C        -2.359670        -2.101667         2.520032
 O        -0.966111        -2.582739         2.132091
 C        -1.058269        -1.363879         2.750058
 C        -0.833787        -0.040558         2.131626
 H        -0.556026         1.747701         0.273187
 H        -3.453609         1.117179         2.164486
 H        -3.338257         1.893248         0.488572
 H        -3.317572        -0.549298        -0.355793
 H        -4.269225        -1.488763         2.016843
 H        -3.366649        -2.498538         0.808927
 H        -2.795469        -2.710197         3.308941
 H        -0.592248        -1.454274         3.785315
 H        -0.834243         0.777248         2.848599
 H         0.225452        -0.209155         1.756098
