19
Iteration:   490charge 0 multiplicity 1
 O        -0.969253         0.943386        -0.086452
 C        -1.751938         0.328440         0.909295
 C        -3.119225         0.783761         1.160434
 C        -2.816721        -0.529420         0.482212
 C        -3.060648        -1.815755         1.250215
 C        -2.312225        -1.844201         2.520221
 O        -0.984443        -2.451408         2.328178
 C        -1.206365        -1.131638         3.019723
 C        -0.810325        -0.002691         1.991847
 H        -1.499782         1.206209        -0.823401
 H        -3.510148         0.920436         2.191583
 H        -3.387939         1.655921         0.629482
 H        -3.039265        -0.549512        -0.527752
 H        -4.154904        -2.071915         1.207870
 H        -2.597118        -2.642339         0.617137
 H        -2.897713        -2.378741         3.315511
 H        -0.788018        -0.990173         4.071652
 H        -0.725679         0.821409         2.683604
 H         0.196977        -0.211894         1.586660
