19
Iteration:  4024charge 0 multiplicity 1
 O        -0.968296         0.963658        -0.194689
 C        -1.628410         0.348479         0.909432
 C        -2.954582         0.967925         1.155193
 C        -2.920971        -0.470662         0.581742
 C        -3.389991        -1.614315         1.557226
 C        -2.247931        -2.216809         2.446946
 O        -0.991498        -2.434087         2.000961
 C        -1.229542        -1.286636         2.851384
 C        -0.780502        -0.037259         2.201726
 H        -0.220845         1.422114         0.268192
 H        -3.100973         1.110451         2.188724
 H        -3.222673         1.730924         0.462236
 H        -3.108767        -0.399912        -0.532645
 H        -4.210263        -1.363641         2.224605
 H        -3.635506        -2.414173         0.895937
 H        -2.425459        -2.974188         3.191595
 H        -0.877217        -1.350908         3.884506
 H        -0.855343         0.679669         2.966454
 H         0.237770        -0.112593         1.909481
