19
Iteration:  2455
 O        -0.879402         0.881965        -0.083469
 C        -1.610241         0.336236         0.953739
 C        -3.039650         0.902850         1.305453
 C        -2.899061        -0.441192         0.665211
 C        -3.388191        -1.669094         1.371674
 C        -2.344338        -2.058030         2.467840
 O        -0.996132        -2.413333         1.980040
 C        -1.174618        -1.257582         2.854925
 C        -0.708592         0.015551         2.096242
 H        -0.939637         0.588505        -0.982030
 H        -3.029458         1.006976         2.408627
 H        -3.448019         1.817595         0.921118
 H        -3.113671        -0.597381        -0.356973
 H        -4.349951        -1.426730         1.860454
 H        -3.639511        -2.489774         0.686653
 H        -2.723952        -2.720347         3.163477
 H        -0.910350        -1.279291         3.937419
 H        -0.641844         0.908839         2.702410
 H         0.191713        -0.157953         1.548286
