19
Iteration:  2843charge 0 multiplicity 1
 O        -0.965736         0.954584        -0.196556
 C        -1.679014         0.409258         0.976081
 C        -2.964637         1.041613         1.362060
 C        -2.936593        -0.353078         0.705743
 C        -3.252860        -1.702407         1.254886
 C        -2.391212        -2.075058         2.438352
 O        -1.012511        -2.566771         2.159017
 C        -1.195915        -1.322704         2.873077
 C        -0.654251        -0.001907         2.044413
 H        -0.987241         0.307452        -0.885140
 H        -3.224557         1.068100         2.428827
 H        -3.374673         1.669316         0.632904
 H        -3.161464        -0.260015        -0.348913
 H        -4.181690        -1.780697         1.679849
 H        -3.002143        -2.541845         0.573736
 H        -2.969712        -2.615632         3.210877
 H        -0.970943        -1.302866         3.947804
 H        -0.390699         0.713561         2.812282
 H         0.213903        -0.313802         1.511924
