19
Iteration:   962charge 0 multiplicity 1
 O        -1.114878         1.120322        -0.195182
 C        -1.642516         0.512332         0.920821
 C        -3.077657         0.874218         1.176377
 C        -2.824356        -0.476021         0.477498
 C        -3.171985        -1.799466         1.218912
 C        -2.370155        -2.073181         2.485216
 O        -1.001443        -2.575848         2.590673
 C        -1.178192        -1.195218         2.871264
 C        -0.645131        -0.165868         1.944266
 H        -0.676213         1.968172         0.099718
 H        -3.450698         0.740657         2.192808
 H        -3.477524         1.635026         0.601532
 H        -3.083796        -0.425625        -0.573288
 H        -4.223394        -1.740107         1.461026
 H        -2.959346        -2.657935         0.526103
 H        -3.044948        -2.513475         3.220095
 H        -0.890364        -0.901152         3.990102
 H        -0.214575         0.637120         2.520996
 H         0.203247        -0.485555         1.327509
