19
Iteration:   457charge 0 multiplicity 1
 O        -0.929868         1.104399        -0.178613
 C        -1.644627         0.510414         0.830923
 C        -3.073428         0.717414         1.204455
 C        -2.835372        -0.609192         0.495560
 C        -3.231211        -1.909316         1.248883
 C        -2.291743        -2.063101         2.448243
 O        -0.969242        -2.510125         2.541451
 C        -1.357192        -1.033559         2.942380
 C        -0.691184         0.004954         1.948875
 H        -1.343008         1.938958        -0.438851
 H        -3.165710         0.700391         2.316505
 H        -3.475667         1.518007         0.693837
 H        -3.131377        -0.639023        -0.492380
 H        -4.232816        -1.774262         1.703943
 H        -3.070922        -2.823953         0.622752
 H        -2.829901        -2.537832         3.304010
 H        -1.253281        -0.814236         4.053958
 H        -0.439343         0.928754         2.361297
 H         0.235714        -0.324933         1.462346
