19
Iteration:  4394
 O        -1.228820         1.205387        -0.249925
 C        -1.596193         0.426720         0.877786
 C        -2.862822         0.897196         1.437583
 C        -2.827076        -0.426402         0.568561
 C        -3.035409        -1.802084         1.181906
 C        -2.426913        -1.913098         2.503623
 O        -1.254242        -2.718552         2.476446
 C        -1.118315        -1.279882         2.820043
 C        -0.554751        -0.164780         1.875467
 H        -1.083328         2.147049         0.105229
 H        -3.216614         0.493327         2.433445
 H        -3.262379         1.832383         1.192787
 H        -3.312773        -0.117274        -0.357705
 H        -4.145205        -1.989721         1.158259
 H        -2.548475        -2.580170         0.533444
 H        -3.022644        -2.221392         3.401817
 H        -1.312365        -1.157108         3.967686
 H        -0.093524         0.701472         2.316828
 H         0.179975        -0.661901         1.263851
