19
Iteration:  1229
 O        -1.039255         0.999869        -0.224722
 C        -1.623188         0.449202         0.983155
 C        -3.152188         0.769662         1.219857
 C        -2.759079        -0.549929         0.516977
 C        -3.146751        -1.761475         1.299989
 C        -2.472784        -1.940355         2.601954
 O        -1.055085        -2.516031         2.233411
 C        -1.174694        -1.219556         2.841622
 C        -0.621072         0.034979         2.105593
 H        -0.433910         1.760806        -0.078497
 H        -3.662585         0.795176         2.191398
 H        -3.470506         1.475366         0.381735
 H        -3.008828        -0.428643        -0.539574
 H        -4.252217        -1.821907         1.460087
 H        -3.070146        -2.643079         0.630790
 H        -2.839436        -2.563067         3.396842
 H        -0.851176        -1.161306         3.888454
 H        -0.435183         0.719197         2.885449
 H         0.331286        -0.172826         1.632066
