19
Iteration:  1626charge 0 multiplicity 1
 O        -0.954148         0.965654        -0.153337
 C        -1.647196         0.335138         0.840789
 C        -3.053107         0.952776         1.309994
 C        -2.896333        -0.383227         0.547704
 C        -3.178810        -1.760145         1.251352
 C        -2.358672        -2.084788         2.547267
 O        -1.028325        -2.476448         2.309459
 C        -1.269972        -1.187317         2.866306
 C        -0.678006        -0.129330         1.967166
 H        -0.745814         1.865610         0.223606
 H        -3.300310         0.883600         2.459339
 H        -3.538639         1.782574         0.850809
 H        -3.301583        -0.318618        -0.487192
 H        -4.261529        -1.685224         1.406023
 H        -2.803337        -2.590613         0.536566
 H        -2.983339        -2.599043         3.389678
 H        -0.850805        -1.221918         3.853850
 H        -0.358494         0.743820         2.650780
 H         0.252442        -0.515977         1.467873
