19
Iteration:  3768charge 0 multiplicity 1
 O        -0.893525         1.141985        -0.254800
 C        -1.691234         0.382159         0.884744
 C        -3.054988         0.948881         1.403419
 C        -3.014813        -0.323609         0.598411
 C        -3.133117        -1.742631         1.234007
 C        -2.384111        -1.982144         2.505391
 O        -1.090192        -2.698255         2.394008
 C        -1.088480        -1.341533         2.833018
 C        -0.689516        -0.190812         1.951119
 H        -1.211353         2.085411        -0.219091
 H        -3.249130         0.834253         2.517536
 H        -3.665685         1.727034         0.757832
 H        -3.178578        -0.238403        -0.460522
 H        -4.233165        -2.083837         1.224582
 H        -2.504025        -2.403288         0.639302
 H        -2.998781        -2.326708         3.370459
 H        -0.871774        -0.906226         3.846077
 H        -0.449106         0.564299         2.645559
 H         0.182064        -0.272262         1.350375
