19
Iteration:  2360charge 0 multiplicity 1
 O        -0.850137         0.754647        -0.107785
 C        -1.662787         0.346880         0.955695
 C        -2.985853         0.909568         1.212495
 C        -2.923019        -0.431184         0.646064
 C        -3.399331        -1.543765         1.528151
 C        -2.301408        -2.101383         2.508560
 O        -0.998961        -2.359510         1.865791
 C        -1.115346        -1.337331         2.809977
 C        -0.797555        -0.034085         2.167281
 H        -0.901655         1.755209        -0.011728
 H        -3.611875         1.044049         2.094563
 H        -3.150908         1.728907         0.534475
 H        -3.135356        -0.366193        -0.391720
 H        -4.342631        -1.180200         1.995753
 H        -3.735967        -2.356157         0.916724
 H        -2.583594        -2.854161         3.220517
 H        -0.630528        -1.373860         3.790976
 H        -0.911651         0.802343         2.890948
 H         0.225425        -0.144115         1.700269
