19
Iteration:  4815
 O        -0.921678         0.902205        -0.172920
 C        -1.732163         0.373516         0.893328
 C        -3.072506         1.025615         1.240112
 C        -2.969024        -0.403571         0.601888
 C        -3.175483        -1.660464         1.417402
 C        -2.297078        -2.026326         2.560201
 O        -1.014990        -2.608155         2.101520
 C        -0.986263        -1.368972         2.728813
 C        -0.913118        -0.011490         2.122080
 H        -0.429808         1.628504         0.231881
 H        -3.223194         1.158016         2.381696
 H        -3.447538         1.889403         0.705932
 H        -3.183838        -0.278582        -0.431173
 H        -4.198765        -1.571452         1.774709
 H        -3.153644        -2.348067         0.553430
 H        -2.888109        -2.615499         3.357009
 H        -0.412427        -1.356942         3.723669
 H        -1.147800         0.759329         2.901269
 H         0.223767        -0.029550         1.985047
