19
Iteration:  2311
 O        -0.818257         0.698682        -0.136779
 C        -1.688434         0.422331         0.918088
 C        -3.040977         1.132664         1.243683
 C        -2.947049        -0.337925         0.748580
 C        -3.243156        -1.581067         1.497542
 C        -2.305941        -2.127771         2.455311
 O        -1.012363        -2.471498         1.912532
 C        -1.082204        -1.376359         2.776359
 C        -0.896208         0.001277         2.187426
 H        -1.441022         0.615768        -0.853019
 H        -3.219322         1.297808         2.352538
 H        -3.356153         2.024011         0.601054
 H        -2.950569        -0.444576        -0.389398
 H        -4.216576        -1.406271         1.946158
 H        -3.430802        -2.466974         0.824405
 H        -2.669285        -2.900783         3.174376
 H        -0.524543        -1.499098         3.746237
 H        -1.194244         0.565476         3.134403
 H         0.152925         0.070252         1.937034
