19
Iteration:  3475
 O        -0.909200         0.838644        -0.226123
 C        -1.656977         0.388874         0.996611
 C        -2.956836         0.955495         1.401723
 C        -2.919637        -0.397476         0.678828
 C        -3.258151        -1.747327         1.266768
 C        -2.383674        -2.055611         2.461052
 O        -1.080413        -2.473161         2.103807
 C        -1.196523        -1.215545         2.847914
 C        -0.670462         0.021693         2.113131
 H        -1.289484         1.732937        -0.441170
 H        -3.245534         0.852337         2.449627
 H        -3.474592         1.772683         0.814850
 H        -2.941727        -0.308850        -0.438833
 H        -4.356046        -1.873439         1.618370
 H        -3.204869        -2.596716         0.398900
 H        -2.848862        -2.908550         3.013476
 H        -0.746738        -1.224536         3.835098
 H        -0.305581         0.743514         2.833547
 H         0.160663        -0.347807         1.498341
