19
Iteration:  1227charge 0 multiplicity 1
 O        -1.039445         0.987067        -0.205210
 C        -1.609623         0.426282         0.988193
 C        -3.170148         0.776855         1.218352
 C        -2.755491        -0.539211         0.525937
 C        -3.162810        -1.769163         1.282267
 C        -2.457393        -1.933041         2.593349
 O        -1.058143        -2.492897         2.248511
 C        -1.188125        -1.205377         2.805721
 C        -0.622422         0.017173         2.101087
 H        -0.425130         1.763160        -0.043937
 H        -3.602095         0.765689         2.259459
 H        -3.432322         1.473815         0.391317
 H        -3.054978        -0.454414        -0.504073
 H        -4.245646        -1.874883         1.517207
 H        -3.008924        -2.663980         0.570951
 H        -2.850823        -2.579943         3.373172
 H        -0.804298        -1.142257         3.917038
 H        -0.382799         0.760824         2.877138
 H         0.359607        -0.144949         1.587413
