19
Iteration:  3830
 O        -1.098703         1.015718        -0.254584
 C        -1.586350         0.325114         0.905694
 C        -3.000551         0.837709         1.398210
 C        -2.908376        -0.394974         0.525865
 C        -3.221760        -1.607924         1.232023
 C        -2.320266        -2.071665         2.412878
 O        -1.082759        -2.554972         2.268117
 C        -1.156406        -1.237719         2.932293
 C        -0.647898        -0.048160         2.082444
 H        -0.379680         1.539525         0.186122
 H        -3.004079         0.905583         2.435661
 H        -3.458566         1.723941         0.978879
 H        -3.191209        -0.295585        -0.595143
 H        -4.234426        -1.643764         1.625633
 H        -3.294743        -2.485897         0.597026
 H        -2.894051        -2.713955         3.103309
 H        -1.057522        -1.304421         3.994565
 H        -0.390729         0.794008         2.818914
 H         0.306517        -0.429744         1.577085
