19
Iteration:  2024
 O        -0.887939         0.931793        -0.135290
 C        -1.603598         0.408023         0.948007
 C        -3.046680         0.944621         1.269321
 C        -2.924009        -0.460576         0.645583
 C        -3.371367        -1.701068         1.458650
 C        -2.399362        -2.094319         2.557372
 O        -1.040610        -2.467737         2.045709
 C        -1.131023        -1.252515         2.745453
 C        -0.656986        -0.066572         2.023966
 H        -0.418657         1.640579         0.433720
 H        -3.565544         1.030349         2.173336
 H        -3.376749         1.782298         0.593295
 H        -3.008269        -0.366634        -0.508281
 H        -4.309986        -1.424003         1.945779
 H        -3.567066        -2.486146         0.648230
 H        -2.952911        -2.643289         3.393935
 H        -0.857754        -1.471473         3.788386
 H        -0.201488         0.853436         2.576835
 H         0.117930        -0.582601         1.419594
