19
Iteration:  4173charge 0 multiplicity 1
 O        -1.096128         0.918878        -0.160618
 C        -1.579047         0.388414         1.003072
 C        -3.014186         0.941747         1.203634
 C        -2.858583        -0.402009         0.617565
 C        -3.226584        -1.732768         1.334766
 C        -2.362899        -1.961377         2.509863
 O        -1.143919        -2.585057         2.057747
 C        -1.038152        -1.304885         2.836363
 C        -0.707838         0.001926         2.149483
 H        -0.419571         1.660555        -0.162196
 H        -3.400168         1.050995         2.266247
 H        -3.445847         1.690011         0.578623
 H        -3.064816        -0.387371        -0.504706
 H        -4.255219        -1.692423         1.732721
 H        -2.958563        -2.677293         0.779906
 H        -2.858172        -2.653167         3.277655
 H        -0.558219        -1.315148         3.811801
 H        -0.727277         0.825998         2.909217
 H         0.372052         0.069058         1.910324
