19
Iteration:  3793charge 0 multiplicity 1
 O        -1.010061         0.944994        -0.127941
 C        -1.714243         0.407258         0.938051
 C        -2.971691         0.974582         1.396220
 C        -2.871136        -0.401284         0.652216
 C        -3.164579        -1.767432         1.209408
 C        -2.394404        -2.097666         2.424125
 O        -1.056618        -2.568568         2.321179
 C        -1.218443        -1.182496         2.801332
 C        -0.703665        -0.084136         1.952741
 H        -1.043879         1.939475        -0.147391
 H        -2.739406         1.078964         2.461692
 H        -3.273734         1.861710         0.836692
 H        -3.200492        -0.272151        -0.346021
 H        -4.230711        -1.879669         1.270532
 H        -2.674780        -2.480175         0.450705
 H        -2.993762        -2.593623         3.192756
 H        -0.815811        -0.976053         3.787791
 H        -0.121277         0.715153         2.483512
 H         0.015518        -0.518954         1.253367
