19
Iteration:   651charge 0 multiplicity 1
 O        -0.777535         0.770281        -0.074444
 C        -1.728004         0.373979         0.891831
 C        -3.156602         0.968614         0.890886
 C        -2.878292        -0.484661         0.557056
 C        -3.327943        -1.704702         1.506794
 C        -2.217879        -2.212256         2.503138
 O        -0.779300        -2.360033         2.132312
 C        -1.211063        -1.268635         2.875063
 C        -0.964063         0.160939         2.258657
 H        -1.264495         1.370562        -0.656040
 H        -3.505268         1.114285         1.897022
 H        -3.653000         1.656310         0.118913
 H        -3.171831        -0.508333        -0.486379
 H        -4.149383        -1.376758         2.115790
 H        -3.720646        -2.469912         0.855416
 H        -2.483885        -3.039714         3.105275
 H        -0.924270        -1.380797         3.982813
 H        -1.129737         0.980822         3.002676
 H         0.142072         0.176609         2.154114
