19
Iteration:  4527
 O        -0.987815         1.143171        -0.184461
 C        -1.605717         0.292969         0.864898
 C        -2.921281         0.820177         1.427618
 C        -2.947802        -0.455667         0.625036
 C        -3.253203        -1.776853         1.190289
 C        -2.410339        -1.974159         2.512540
 O        -1.096338        -2.544066         2.286303
 C        -1.213790        -1.155420         2.819237
 C        -0.576422        -0.134712         1.997138
 H        -0.942202         2.139290        -0.061070
 H        -3.156408         0.472015         2.401203
 H        -3.582327         1.634548         0.948047
 H        -3.265919        -0.445084        -0.415983
 H        -4.334593        -1.647453         1.382439
 H        -3.043883        -2.615029         0.548435
 H        -2.935644        -2.500356         3.253767
 H        -0.885143        -0.996717         3.901508
 H        -0.181801         0.674364         2.555727
 H         0.220906        -0.605165         1.433645
