19
Iteration:  4156
 O        -1.002561         0.856810        -0.176936
 C        -1.760946         0.353164         1.051101
 C        -3.068552         0.974344         1.267119
 C        -2.836161        -0.472269         0.580902
 C        -3.288040        -1.624035         1.315905
 C        -2.329640        -2.062253         2.533089
 O        -1.041523        -2.500523         2.076829
 C        -1.085444        -1.291042         2.774660
 C        -0.693413         0.048331         2.107781
 H        -0.311711         1.409151         0.295806
 H        -3.559052         0.951426         2.208882
 H        -3.172791         1.872783         0.650081
 H        -2.835596        -0.495899        -0.460655
 H        -4.346815        -1.557095         1.652235
 H        -3.314618        -2.427569         0.580455
 H        -2.664268        -2.521932         3.457303
 H        -0.727896        -1.508063         3.822973
 H        -0.482214         0.686755         3.018569
 H         0.264392        -0.137671         1.618312
