19
Iteration:  4385
 O        -1.164538         1.229025        -0.252529
 C        -1.578705         0.406579         0.843960
 C        -2.896143         0.915748         1.484780
 C        -2.864699        -0.320026         0.504126
 C        -3.082829        -1.829030         1.180734
 C        -2.449237        -1.983753         2.562593
 O        -1.220157        -2.733750         2.473975
 C        -1.117838        -1.280273         2.849571
 C        -0.585679        -0.205337         1.861158
 H        -1.181408         2.229750        -0.145063
 H        -3.167576         0.662286         2.562286
 H        -3.430591         1.703111         1.026269
 H        -3.472191        -0.282811        -0.441832
 H        -4.118241        -2.345884         1.120354
 H        -2.342265        -2.403169         0.627741
 H        -3.123474        -1.957556         3.378608
 H        -0.814139        -1.013703         3.957374
 H        -0.171190         0.648369         2.475147
 H         0.273239        -0.525385         1.273736
