19
Iteration:   231charge 0 multiplicity 1
 O        -1.011945         1.235750        -0.265828
 C        -1.641840         0.444257         0.884397
 C        -3.061679         0.746416         1.205800
 C        -2.752137        -0.503032         0.491152
 C        -3.042460        -1.853181         1.181988
 C        -2.398161        -2.069922         2.513182
 O        -0.944425        -2.509298         2.634623
 C        -1.344192        -1.096448         2.923971
 C        -0.802273        -0.082014         1.979229
 H        -1.035959         0.624619        -1.033769
 H        -3.387786         0.402579         2.205195
 H        -3.572962         1.675540         0.731420
 H        -3.043104        -0.590124        -0.465300
 H        -4.161636        -1.810140         1.479479
 H        -2.917584        -2.717813         0.519302
 H        -2.953399        -2.545775         3.368083
 H        -1.315841        -0.693405         3.969398
 H        -0.298498         0.808798         2.483885
 H        -0.087926        -0.704731         1.515425
