19
Iteration:  3247charge 0 multiplicity 1
 O        -0.775901         1.034252        -0.065842
 C        -1.588021         0.387649         0.958767
 C        -3.077893         0.913255         1.089058
 C        -2.865930        -0.538455         0.660326
 C        -3.382554        -1.607817         1.602624
 C        -2.373164        -2.062879         2.609904
 O        -1.047869        -2.515136         1.801321
 C        -1.118837        -1.336724         2.775236
 C        -0.832177        -0.008507         2.180924
 H        -1.170749         0.888365        -0.976590
 H        -3.403556         1.080359         2.190943
 H        -3.441537         1.694066         0.374661
 H        -2.877756        -0.725407        -0.426377
 H        -4.286449        -1.250968         2.146261
 H        -3.660525        -2.459340         1.035324
 H        -2.603701        -2.771415         3.395624
 H        -0.421076        -1.520761         3.690805
 H        -0.984648         0.756167         3.004110
 H         0.304060         0.137730         2.084271
