19
Iteration:   186
 O        -0.887591         0.833830        -0.125629
 C        -1.724530         0.336396         0.899367
 C        -3.143143         0.782414         1.204664
 C        -2.911256        -0.522645         0.475341
 C        -3.023041        -1.854663         1.173319
 C        -2.389603        -1.858486         2.542006
 O        -0.963596        -2.444995         2.399527
 C        -1.222099        -1.132112         2.833250
 C        -0.866969         0.130885         2.088188
 H        -0.994000         1.786461        -0.354191
 H        -3.291300         0.824706         2.260821
 H        -3.521218         1.675499         0.631573
 H        -2.926695        -0.472837        -0.565281
 H        -4.039523        -2.357750         1.282563
 H        -2.443812        -2.635707         0.648662
 H        -2.919715        -2.256112         3.434865
 H        -0.843460        -1.089433         3.856456
 H        -0.731069         0.884032         2.931800
 H         0.101303        -0.073952         1.718283
