19
Iteration:    94charge 0 multiplicity 1
 O        -0.753323         0.896610         0.001477
 C        -1.748872         0.395879         0.923959
 C        -3.227993         0.828618         0.912516
 C        -2.726273        -0.629491         0.485962
 C        -3.205012        -1.822143         1.444624
 C        -2.324352        -1.976727         2.595371
 O        -0.971877        -2.360077         2.119522
 C        -1.083460        -1.128462         2.878099
 C        -0.998530         0.137619         2.221288
 H        -0.943130         0.541087        -0.909777
 H        -3.710706         0.822966         1.900877
 H        -3.744834         1.429515         0.074197
 H        -2.773451        -0.879138        -0.675678
 H        -4.274789        -1.784827         1.672791
 H        -3.100074        -2.821117         0.932671
 H        -2.764128        -2.616004         3.412599
 H        -0.579002        -1.234644         3.863772
 H        -1.450369         0.956952         2.916630
 H         0.134516         0.437214         2.156895
