19
Iteration:  3295charge 0 multiplicity 1
 O        -0.839576         0.739202        -0.087875
 C        -1.697611         0.338580         1.009069
 C        -3.046032         1.075842         1.130342
 C        -2.942618        -0.422988         0.621004
 C        -3.370119        -1.551973         1.521723
 C        -2.254790        -2.109623         2.414032
 O        -0.950129        -2.416870         1.901360
 C        -1.017723        -1.362148         2.876597
 C        -0.918645        -0.026677         2.229346
 H        -1.290426         1.288081        -0.716055
 H        -3.587856         1.159568         2.059792
 H        -3.216173         1.941457         0.404267
 H        -3.061267        -0.335252        -0.436721
 H        -4.293300        -1.448676         2.097055
 H        -3.460307        -2.414907         0.745219
 H        -2.582794        -2.823568         3.195199
 H        -0.748671        -1.478902         3.932532
 H        -0.834258         0.735663         3.016122
 H         0.095183         0.011361         1.873877
