19
Iteration:  4760charge 0 multiplicity 1
 O        -0.989625         0.857627        -0.137750
 C        -1.681972         0.364698         1.016584
 C        -2.999008         0.904491         1.271699
 C        -2.861652        -0.444073         0.584920
 C        -3.341755        -1.699385         1.440737
 C        -2.290910        -2.060952         2.400847
 O        -0.969133        -2.377274         1.985245
 C        -1.216500        -1.236583         2.918336
 C        -0.697507        -0.073894         2.098173
 H        -0.886173         1.853093        -0.142112
 H        -3.425421         0.990679         2.289126
 H        -3.295634         1.760047         0.557435
 H        -3.060018        -0.337645        -0.505034
 H        -4.298351        -1.508517         1.970975
 H        -3.319240        -2.601330         0.738678
 H        -2.640114        -2.950029         3.002045
 H        -1.080755        -1.129919         4.041703
 H        -0.467512         0.848235         2.687821
 H         0.291256        -0.573239         1.834645
