19
Iteration:  1358charge 0 multiplicity 1
 O        -0.859521         0.845047        -0.129056
 C        -1.721044         0.381800         0.954827
 C        -3.082796         0.954037         1.073465
 C        -2.854767        -0.472621         0.571265
 C        -3.273132        -1.666784         1.460754
 C        -2.237177        -2.059137         2.465303
 O        -0.933847        -2.443882         2.040789
 C        -1.179134        -1.269365         2.859104
 C        -0.949543         0.076123         2.283200
 H        -0.539670         0.074520        -0.664887
 H        -3.425430         1.205666         2.028243
 H        -3.539950         1.747901         0.444623
 H        -2.919736        -0.622376        -0.510538
 H        -4.144260        -1.496589         2.010388
 H        -3.343504        -2.510971         0.770159
 H        -2.544492        -2.764902         3.167658
 H        -0.662362        -1.305375         3.862446
 H        -1.327840         0.757636         3.093462
 H         0.121985         0.261746         2.009263
