19
Iteration:  3204charge 0 multiplicity 1
 O        -0.922753         0.883554        -0.085659
 C        -1.647680         0.434806         1.005350
 C        -3.072050         1.061423         1.116487
 C        -2.932505        -0.339211         0.672022
 C        -3.339890        -1.588498         1.492914
 C        -2.319728        -2.049941         2.420083
 O        -0.935878        -2.586896         1.991176
 C        -1.091263        -1.366950         2.744988
 C        -0.789257        -0.010370         2.208538
 H        -0.684947         0.114713        -0.672476
 H        -3.448823         0.927435         2.146555
 H        -3.257573         1.715709         0.298591
 H        -3.216139        -0.600492        -0.323941
 H        -4.250784        -1.393712         2.095955
 H        -3.559041        -2.477233         0.891060
 H        -2.720162        -2.684023         3.211776
 H        -0.812396        -1.699301         3.797117
 H        -0.872171         0.734225         3.041014
 H         0.278906         0.018871         1.913636
