19
Iteration:  3854
 O        -0.993241         1.041852        -0.156086
 C        -1.603456         0.443478         0.950843
 C        -3.075777         0.944241         1.312623
 C        -2.814918        -0.486302         0.543499
 C        -3.244384        -1.748736         1.316480
 C        -2.424403        -2.006477         2.578270
 O        -1.043992        -2.601888         2.214916
 C        -1.133455        -1.275740         2.678924
 C        -0.733048        -0.072072         2.020799
 H        -0.198628         1.541850         0.188719
 H        -3.408712         1.044278         2.375561
 H        -3.222976         1.961909         0.784370
 H        -3.344494        -0.483814        -0.389930
 H        -4.351445        -1.676793         1.501019
 H        -3.207783        -2.650901         0.806250
 H        -2.900400        -2.411652         3.510718
 H        -0.594582        -1.268875         3.664054
 H        -0.747860         0.580274         2.916081
 H         0.327250        -0.169177         1.694456
