19
Iteration:  1407charge 0 multiplicity 1
 O        -0.941467         0.913083        -0.084788
 C        -1.656483         0.388381         0.986027
 C        -3.005518         0.864168         0.962653
 C        -2.865214        -0.586902         0.591785
 C        -3.360448        -1.628476         1.508470
 C        -2.299610        -2.075222         2.496772
 O        -0.956005        -2.418496         1.966009
 C        -1.170214        -1.330761         2.854441
 C        -0.812511         0.121315         2.252871
 H        -0.073432         1.197551         0.198159
 H        -3.736078         1.174703         1.771187
 H        -3.176142         1.630497         0.187354
 H        -3.141828        -0.878063        -0.409963
 H        -4.215493        -1.217388         2.118117
 H        -3.588165        -2.552277         0.930372
 H        -2.569000        -2.888025         3.276813
 H        -0.882383        -1.363555         3.859132
 H        -1.030587         0.904822         2.949687
 H         0.219895         0.138613         1.991811
