19
Iteration:  3816
 O        -1.063534         0.968830        -0.255974
 C        -1.641215         0.391084         0.913209
 C        -3.009119         0.909195         1.421675
 C        -2.895183        -0.339369         0.585558
 C        -3.211589        -1.735693         1.207982
 C        -2.398126        -2.052998         2.412649
 O        -0.977917        -2.473543         2.260392
 C        -1.277555        -1.225217         2.942548
 C        -0.577624        -0.199531         2.073657
 H        -0.689528         1.846093        -0.165309
 H        -3.377814         0.633174         2.411015
 H        -3.217050         1.779063         0.886098
 H        -3.400405        -0.204215        -0.388342
 H        -4.204475        -1.607769         1.567355
 H        -3.108298        -2.515258         0.364617
 H        -2.960867        -2.612006         3.143145
 H        -0.919080        -1.213898         3.953014
 H        -0.283628         0.766959         2.594264
 H         0.351716        -0.676429         1.692128
