19
Iteration:   400charge 0 multiplicity 1
 O        -1.124144         0.985901        -0.158994
 C        -1.717067         0.362354         0.930345
 C        -3.192995         0.784826         1.237209
 C        -2.796971        -0.495355         0.469075
 C        -2.902768        -1.844853         1.083817
 C        -2.426409        -1.766115         2.508244
 O        -1.046601        -2.520476         2.602580
 C        -1.143986        -1.153406         2.852685
 C        -0.662963        -0.085052         1.974090
 H        -0.453154         1.618495         0.164846
 H        -3.603046         0.787862         2.173761
 H        -3.756243         1.517425         0.635360
 H        -3.063999        -0.445811        -0.641223
 H        -3.969448        -2.186556         1.163707
 H        -2.539765        -2.747308         0.566694
 H        -3.079118        -1.826745         3.308202
 H        -1.118041        -1.061780         3.918048
 H        -0.334718         0.795439         2.455749
 H         0.167438        -0.435841         1.321409
