19
Iteration:  4086
 O        -0.925190         0.837770        -0.217410
 C        -1.667570         0.366978         1.008479
 C        -3.052461         1.005254         1.198289
 C        -2.849336        -0.401155         0.635286
 C        -3.283466        -1.636602         1.417470
 C        -2.320973        -2.096206         2.488742
 O        -1.054044        -2.584596         2.027351
 C        -1.026149        -1.317687         2.772054
 C        -0.787121         0.086703         2.274356
 H        -1.260658         1.757574        -0.369995
 H        -3.393612         1.285580         2.205580
 H        -3.442624         1.683706         0.370906
 H        -3.098898        -0.392844        -0.484783
 H        -4.357100        -1.495410         1.732591
 H        -3.436349        -2.468664         0.714303
 H        -2.807014        -2.804945         3.201050
 H        -0.671631        -1.578965         3.807174
 H        -0.917848         0.841668         3.155384
 H         0.310644         0.115187         1.983919
