19
Iteration:   493charge 0 multiplicity 1
 O        -0.978459         0.940546        -0.090380
 C        -1.763796         0.347469         0.920560
 C        -3.093899         0.798794         1.150691
 C        -2.828656        -0.545453         0.473036
 C        -3.045284        -1.819185         1.262338
 C        -2.304425        -1.852199         2.528618
 O        -0.998746        -2.485095         2.307379
 C        -1.206123        -1.117824         3.034996
 C        -0.788177         0.038564         2.008934
 H        -1.479786         1.123602        -0.920656
 H        -3.502284         0.921860         2.159160
 H        -3.499370         1.708716         0.529281
 H        -3.116023        -0.478087        -0.615309
 H        -4.067924        -2.137908         1.211622
 H        -2.607189        -2.641565         0.683835
 H        -2.965729        -2.424300         3.322031
 H        -0.821501        -1.072129         4.068898
 H        -0.704102         0.778400         2.771034
 H         0.172392        -0.174251         1.596013
