19
Iteration:   337charge 0 multiplicity 1
 O        -1.165443         1.159847        -0.264778
 C        -1.603355         0.306900         0.805299
 C        -2.913220         0.856998         1.298461
 C        -2.843317        -0.451770         0.532240
 C        -2.978786        -1.896751         1.076779
 C        -2.406270        -2.164212         2.480821
 O        -1.044664        -2.457257         2.792742
 C        -1.361654        -1.093540         2.880212
 C        -0.658341        -0.110871         1.890084
 H        -1.390397         2.090109         0.024742
 H        -3.196074         0.830041         2.284933
 H        -3.304942         1.656545         0.630230
 H        -3.085147        -0.417961        -0.544434
 H        -4.020487        -2.130288         1.091968
 H        -2.531008        -2.496679         0.257207
 H        -3.163920        -2.403023         3.268993
 H        -1.379139        -0.690542         3.897619
 H        -0.211979         0.771801         2.387499
 H         0.225783        -0.721526         1.519609
