19
Iteration:  3747
 O        -1.087420         1.147343        -0.119624
 C        -1.624208         0.431590         0.869469
 C        -2.974113         0.896280         1.354256
 C        -2.868352        -0.366024         0.475123
 C        -3.096202        -1.721535         1.198360
 C        -2.417781        -1.991585         2.585610
 O        -1.139625        -2.724978         2.409589
 C        -1.126783        -1.306325         2.863421
 C        -0.639730        -0.137159         1.844400
 H        -1.260812         2.096627        -0.112107
 H        -3.309033         0.635905         2.389718
 H        -3.411706         1.884637         0.928460
 H        -3.285960        -0.393617        -0.498279
 H        -4.176597        -1.648859         1.465557
 H        -2.842604        -2.606815         0.568106
 H        -3.039957        -2.322759         3.450783
 H        -0.679678        -1.096367         3.870815
 H        -0.229391         0.617804         2.495635
 H         0.235491        -0.501727         1.335622
