19
Iteration:  3912
 O        -0.963619         0.936364        -0.125577
 C        -1.614002         0.392404         0.975800
 C        -2.992247         0.947083         1.204929
 C        -2.851696        -0.454481         0.639840
 C        -3.398115        -1.618465         1.386462
 C        -2.357153        -2.099006         2.396145
 O        -0.906846        -2.539761         2.147285
 C        -1.202761        -1.294171         2.802393
 C        -0.700495        -0.029660         2.070491
 H        -1.317325         1.812831        -0.195574
 H        -3.407846         0.738261         2.260950
 H        -3.388538         1.734071         0.581245
 H        -3.055075        -0.667372        -0.405201
 H        -4.058987        -1.157112         2.154406
 H        -3.882041        -2.323445         0.765539
 H        -2.930922        -2.675031         3.124702
 H        -0.880564        -1.388808         3.907257
 H        -0.640896         0.720957         2.818689
 H         0.302431        -0.178930         1.739342
