19
Iteration:  4327
 O        -1.092562         1.096676        -0.153539
 C        -1.649497         0.381530         0.911478
 C        -3.004045         0.859108         1.452686
 C        -2.876327        -0.321231         0.597695
 C        -3.166830        -1.742798         1.167072
 C        -2.442321        -2.020378         2.427651
 O        -1.013131        -2.478274         2.445585
 C        -1.195089        -1.238626         2.891515
 C        -0.597193        -0.280001         1.779099
 H        -0.441823         1.624614         0.298600
 H        -3.336385         0.663253         2.434751
 H        -3.321825         1.843771         0.987680
 H        -3.248328        -0.359632        -0.387217
 H        -4.242362        -1.938243         1.334198
 H        -2.985302        -2.466739         0.310469
 H        -3.032357        -2.536742         3.249594
 H        -1.129525        -0.787287         3.945895
 H         0.088185         0.420150         2.197099
 H        -0.082635        -0.912490         1.054588
