19
Iteration:  3584
 O        -1.000137         1.207512        -0.148181
 C        -1.616011         0.369723         0.845225
 C        -3.044245         0.766314         1.401640
 C        -2.876152        -0.445684         0.563864
 C        -3.205195        -1.774478         1.250883
 C        -2.470722        -1.892597         2.548695
 O        -1.089913        -2.559824         2.313490
 C        -1.136639        -1.230322         2.830037
 C        -0.632468        -0.226061         1.850208
 H        -0.295755         1.638114         0.355926
 H        -3.346375         0.666216         2.490032
 H        -3.378327         1.727916         1.043091
 H        -3.194323        -0.315829        -0.448846
 H        -4.190512        -1.853808         1.593960
 H        -3.043862        -2.616199         0.527065
 H        -3.032340        -2.252312         3.422535
 H        -1.005231        -1.182978         3.876164
 H        -0.201839         0.619051         2.476110
 H         0.305249        -0.501813         1.346412
