19
Iteration:  2865charge 0 multiplicity 1
 O        -0.904424         1.044922        -0.074259
 C        -1.712246         0.355984         0.887537
 C        -2.987723         1.099800         1.257165
 C        -2.990160        -0.316886         0.586624
 C        -3.261269        -1.653984         1.386230
 C        -2.356031        -2.156587         2.516686
 O        -0.994113        -2.603871         2.144152
 C        -1.106201        -1.293679         2.865877
 C        -0.787301        -0.123312         1.996384
 H        -0.598178         0.460014        -0.834774
 H        -3.353610         1.002721         2.309594
 H        -3.305843         1.830515         0.570961
 H        -3.335533        -0.468055        -0.433636
 H        -4.169334        -1.678473         1.876311
 H        -3.220909        -2.470821         0.624792
 H        -2.806426        -2.649157         3.404410
 H        -0.601067        -1.148610         3.833930
 H        -0.585758         0.566323         2.815996
 H         0.168956        -0.340472         1.575314
