19
Iteration:  4561
 O        -0.940472         1.083608        -0.112441
 C        -1.678099         0.401604         0.932501
 C        -3.002596         0.975678         1.298747
 C        -2.933708        -0.425861         0.534970
 C        -3.193633        -1.728433         1.295586
 C        -2.376653        -2.059844         2.580379
 O        -1.009375        -2.597701         2.294512
 C        -1.190830        -1.248175         2.778303
 C        -0.758735        -0.117436         1.884951
 H        -0.469557         1.814358         0.325299
 H        -3.374886         0.757237         2.345143
 H        -3.619261         1.747663         0.856272
 H        -3.152293        -0.496068        -0.513259
 H        -4.298918        -1.688395         1.517989
 H        -3.140203        -2.565546         0.613692
 H        -2.792955        -2.590744         3.367174
 H        -0.688219        -1.183863         3.763312
 H        -0.307500         0.659805         2.454323
 H         0.056002        -0.706371         1.509074
