19
Iteration:  1774charge 0 multiplicity 1
 O        -1.144191         1.140342        -0.217673
 C        -1.561538         0.375081         0.910139
 C        -3.013060         0.900243         1.406393
 C        -2.788967        -0.411363         0.578155
 C        -3.067549        -1.795130         1.150273
 C        -2.458834        -1.957515         2.508468
 O        -1.189620        -2.649137         2.504893
 C        -1.211044        -1.253939         2.782851
 C        -0.535369        -0.179987         1.849317
 H        -1.096606         2.041616         0.217496
 H        -2.892662         0.982792         2.506769
 H        -3.377532         1.770374         0.995578
 H        -3.195426        -0.275883        -0.437703
 H        -4.171424        -1.819066         1.304333
 H        -2.834235        -2.604181         0.483718
 H        -3.166570        -2.003591         3.362361
 H        -1.143422        -1.030913         3.860116
 H        -0.060506         0.591626         2.417718
 H         0.312475        -0.557187         1.287593
