19
Iteration:   199charge 0 multiplicity 1
 O        -0.938536         0.902361        -0.085429
 C        -1.689426         0.284342         0.922452
 C        -3.074946         0.815143         1.200115
 C        -2.911677        -0.528515         0.513251
 C        -2.993507        -1.918374         1.140009
 C        -2.397059        -1.917735         2.512038
 O        -1.044093        -2.432071         2.425178
 C        -1.194529        -1.022831         2.874417
 C        -0.756264         0.065026         2.049321
 H        -1.647137         1.411339        -0.499803
 H        -3.569779         0.739330         2.179462
 H        -3.363382         1.804229         0.640844
 H        -3.046741        -0.554464        -0.495301
 H        -4.075573        -2.294806         1.147616
 H        -2.366506        -2.492763         0.459562
 H        -3.060961        -2.374691         3.296562
 H        -1.039848        -0.904210         3.979494
 H        -0.673087         1.075622         2.503740
 H         0.183242        -0.169624         1.642101
