19
Iteration:   106charge 0 multiplicity 1
 O        -0.799090         0.953961         0.000340
 C        -1.731510         0.414788         0.897939
 C        -3.200163         0.731284         0.889609
 C        -2.827976        -0.638065         0.437311
 C        -3.183336        -1.726836         1.418642
 C        -2.244793        -2.002813         2.587574
 O        -0.937921        -2.377492         2.141803
 C        -1.208202        -1.164292         2.968929
 C        -0.939564         0.155905         2.224564
 H        -0.763146         0.334674        -0.752672
 H        -3.807704         0.697222         1.782512
 H        -3.524501         1.529543         0.179070
 H        -3.005380        -0.874787        -0.743033
 H        -4.186451        -1.575872         1.867151
 H        -3.143256        -2.714370         0.863392
 H        -2.656894        -2.661986         3.397978
 H        -0.861044        -1.157260         4.008380
 H        -0.953404         0.957871         3.069462
 H         0.134163         0.103927         1.780985
