19
Iteration:  3456charge 0 multiplicity 1
 O        -0.970393         0.813436        -0.165175
 C        -1.683910         0.410389         0.973778
 C        -3.068480         0.965683         1.283554
 C        -2.906158        -0.338767         0.590419
 C        -3.270820        -1.601638         1.279925
 C        -2.301999        -2.051969         2.472581
 O        -1.000740        -2.553469         2.104096
 C        -1.116997        -1.321387         2.867195
 C        -0.697123        -0.060803         2.132478
 H        -1.079704         1.761159        -0.362958
 H        -3.285890         0.929689         2.384122
 H        -3.402476         1.885280         0.748903
 H        -3.121642        -0.339018        -0.434436
 H        -4.248670        -1.498616         1.791392
 H        -3.182041        -2.460639         0.709280
 H        -2.904231        -2.459022         3.269522
 H        -0.885809        -1.480451         3.974145
 H        -0.727000         0.781176         2.813149
 H         0.329797        -0.215643         1.696292
