19
Iteration:  1397charge 0 multiplicity 1
 O        -0.906475         0.927544        -0.104405
 C        -1.671939         0.380442         0.989788
 C        -3.070964         0.959673         0.938270
 C        -2.899861        -0.540664         0.551085
 C        -3.392283        -1.695626         1.579652
 C        -2.285633        -2.140283         2.410401
 O        -0.929786        -2.436037         1.997982
 C        -1.126967        -1.225753         2.890315
 C        -0.813287         0.070472         2.248145
 H        -0.056276         1.034491         0.366209
 H        -3.563137         1.304722         1.894996
 H        -3.164342         1.586338        -0.019750
 H        -2.883594        -0.736024        -0.522641
 H        -4.357178        -1.574587         2.235382
 H        -3.767914        -2.647786         1.100363
 H        -2.781501        -2.829770         3.233702
 H        -0.779631        -1.445608         3.873941
 H        -0.965096         0.817206         3.038878
 H         0.237437         0.022364         2.016023
