19
Iteration:   266charge 0 multiplicity 1
 O        -1.122203         1.258519        -0.128045
 C        -1.645757         0.302388         0.856399
 C        -3.044117         0.763100         1.141616
 C        -2.890518        -0.579945         0.481769
 C        -3.074406        -1.917012         1.113138
 C        -2.378662        -1.911499         2.526433
 O        -1.034285        -2.473108         2.687525
 C        -1.183087        -1.116141         2.933165
 C        -0.661454        -0.131563         1.869355
 H        -0.197260         1.543052         0.055736
 H        -3.568425         0.765335         2.201293
 H        -3.367854         1.584102         0.494895
 H        -3.252524        -0.474318        -0.561834
 H        -4.218395        -2.031555         1.217996
 H        -2.766155        -2.774925         0.458668
 H        -3.048487        -2.223235         3.346276
 H        -1.109925        -0.830714         4.021617
 H        -0.109614         0.676947         2.353019
 H         0.077407        -0.614891         1.231147
