19
Iteration:  1062charge 0 multiplicity 1
 O        -1.215181         1.297701        -0.243664
 C        -1.608861         0.417813         0.810945
 C        -3.000964         0.868765         1.361366
 C        -2.808269        -0.446942         0.445628
 C        -2.944635        -1.847739         1.159318
 C        -2.411996        -1.966879         2.508286
 O        -1.122199        -2.574088         2.752906
 C        -1.229166        -1.194198         2.914849
 C        -0.654312        -0.323546         1.760274
 H        -0.890431         2.041591         0.272914
 H        -3.271728         0.749639         2.393566
 H        -3.541985         1.803038         1.011724
 H        -3.144984        -0.440835        -0.625435
 H        -3.908103        -2.322526         1.144769
 H        -2.398182        -2.460153         0.404267
 H        -3.080363        -2.427724         3.254861
 H        -1.103205        -0.872061         4.041061
 H         0.077873         0.355331         2.122232
 H        -0.047867        -0.992683         1.134062
