19
Iteration:  1499charge 0 multiplicity 1
 O        -0.805219         0.789716        -0.220035
 C        -1.696238         0.376206         0.945258
 C        -3.113289         0.997739         1.169059
 C        -2.896576        -0.409539         0.680016
 C        -3.267705        -1.647466         1.345976
 C        -2.271310        -2.175983         2.372141
 O        -0.879631        -2.420184         2.178498
 C        -1.233635        -1.227658         2.933332
 C        -0.846739         0.005471         2.201521
 H        -1.372597         1.344150        -0.806493
 H        -3.539675         1.184113         2.204833
 H        -3.459901         1.791215         0.591698
 H        -3.133095        -0.578099        -0.390016
 H        -4.337681        -1.618148         1.832237
 H        -3.405958        -2.313123         0.468519
 H        -2.771402        -2.967170         2.940772
 H        -0.906396        -1.399208         4.038257
 H        -1.019506         0.827006         2.927612
 H         0.230862        -0.120075         1.907283
