19
Iteration:  4158
 O        -1.022497         0.858185        -0.169605
 C        -1.750021         0.369114         1.045691
 C        -3.058123         0.961987         1.261627
 C        -2.836332        -0.463786         0.584346
 C        -3.276686        -1.633947         1.314408
 C        -2.327919        -2.061738         2.540913
 O        -1.055086        -2.509375         2.071100
 C        -1.078435        -1.289589         2.786787
 C        -0.679408         0.053586         2.116767
 H        -0.354037         1.391987         0.272206
 H        -3.533832         0.954928         2.217785
 H        -3.133654         1.881438         0.592526
 H        -2.855757        -0.496451        -0.479114
 H        -4.326615        -1.589120         1.581513
 H        -3.351817        -2.441959         0.491970
 H        -2.742521        -2.443247         3.542715
 H        -0.688776        -1.574222         3.774789
 H        -0.582097         0.720564         2.973405
 H         0.291656        -0.125197         1.612648
