19
Iteration:   611charge 0 multiplicity 1
 O        -0.892286         0.822931        -0.188681
 C        -1.660994         0.407728         0.893480
 C        -3.180486         0.890707         0.962036
 C        -2.756928        -0.542258         0.532242
 C        -3.223016        -1.682125         1.437949
 C        -2.313057        -2.057475         2.606582
 O        -0.958110        -2.438562         2.097187
 C        -1.083237        -1.278819         2.884804
 C        -0.919429         0.126416         2.326361
 H        -0.755025         1.804839        -0.096417
 H        -3.751640         0.853878         1.903082
 H        -3.714131         1.551014         0.223367
 H        -3.074581        -0.767226        -0.472590
 H        -4.322633        -1.725515         1.739632
 H        -3.140359        -2.650987         0.809614
 H        -2.778530        -2.640418         3.436622
 H        -0.496575        -1.261575         3.855619
 H        -1.414119         0.859143         3.049314
 H         0.115645         0.542565         2.105300
