19
Iteration:  4085charge 0 multiplicity 1
 O        -0.922511         0.831397        -0.215482
 C        -1.672290         0.362233         1.007903
 C        -3.061076         1.002400         1.202620
 C        -2.842837        -0.392892         0.632516
 C        -3.275166        -1.639757         1.423007
 C        -2.323015        -2.081366         2.483943
 O        -1.064031        -2.586210         2.027590
 C        -1.021086        -1.322476         2.776415
 C        -0.786312         0.098218         2.270861
 H        -1.266035         1.761893        -0.370776
 H        -3.441559         1.269157         2.199625
 H        -3.440705         1.694319         0.362258
 H        -3.075875        -0.376365        -0.463310
 H        -4.331497        -1.505890         1.752730
 H        -3.422264        -2.500424         0.704634
 H        -2.817415        -2.842071         3.162632
 H        -0.640986        -1.615287         3.768099
 H        -0.898031         0.841101         3.136725
 H         0.312189         0.115952         1.998283
