19
Iteration:  2845
 O        -0.957220         0.961146        -0.184860
 C        -1.678529         0.407657         0.968885
 C        -2.981955         1.036153         1.343377
 C        -2.944608        -0.348531         0.712029
 C        -3.256731        -1.691128         1.261116
 C        -2.355386        -2.084630         2.447149
 O        -1.016353        -2.573231         2.162934
 C        -1.205794        -1.324369         2.869277
 C        -0.653605        -0.005372         2.036893
 H        -0.985241         0.297864        -0.881883
 H        -3.202962         1.085725         2.433975
 H        -3.308214         1.711369         0.624858
 H        -3.189307        -0.239156        -0.374780
 H        -4.302698        -1.762204         1.712635
 H        -2.951931        -2.531098         0.580169
 H        -3.001395        -2.664184         3.208231
 H        -0.969396        -1.344755         3.909247
 H        -0.413542         0.786956         2.791157
 H         0.226608        -0.327829         1.502014
