19
Iteration:  1960charge 0 multiplicity 1
 O        -1.002325         0.988037        -0.226047
 C        -1.687186         0.428184         0.892787
 C        -2.952455         1.083511         1.411083
 C        -2.881967        -0.326581         0.686376
 C        -3.204133        -1.742936         1.263728
 C        -2.375109        -2.101288         2.390095
 O        -1.067427        -2.624969         2.267864
 C        -1.191471        -1.344963         2.848393
 C        -0.639732        -0.009804         2.050777
 H        -0.929729         0.277737        -0.907805
 H        -3.141689         1.063442         2.464719
 H        -3.567080         1.724437         0.694145
 H        -3.242543        -0.333536        -0.413011
 H        -4.240582        -1.726912         1.724535
 H        -3.131558        -2.537947         0.483014
 H        -2.931121        -2.392239         3.275615
 H        -0.954030        -1.218546         3.929956
 H        -0.508400         0.825003         2.792476
 H         0.352824        -0.230769         1.587988
