19
Iteration:  4549
 O        -0.900849         1.098099        -0.076048
 C        -1.688557         0.433708         0.811469
 C        -2.986465         0.846052         1.363923
 C        -2.857162        -0.429570         0.560132
 C        -3.266799        -1.796194         1.318979
 C        -2.375429        -2.087501         2.561654
 O        -1.070238        -2.510321         2.261075
 C        -1.184358        -1.196027         2.823995
 C        -0.741063        -0.190344         1.853145
 H        -0.585197         1.949254         0.273080
 H        -3.042202         0.838654         2.455705
 H        -3.285273         1.804442         0.855681
 H        -3.358871        -0.311388        -0.391671
 H        -4.340525        -1.797063         1.536306
 H        -3.003094        -2.600910         0.653453
 H        -2.843155        -2.524160         3.406291
 H        -0.982310        -0.979253         3.925921
 H        -0.471824         0.651563         2.463041
 H         0.051676        -0.309437         1.158927
