19
Iteration:  2090
 O        -0.866756         0.936983        -0.139181
 C        -1.573220         0.444959         0.985432
 C        -2.983771         0.984414         1.175073
 C        -2.912971        -0.414436         0.697886
 C        -3.331607        -1.651147         1.472096
 C        -2.355682        -2.085587         2.528097
 O        -1.114702        -2.618766         2.012786
 C        -1.051843        -1.341811         2.731963
 C        -0.796533         0.033475         2.116965
 H        -1.422944         1.402388        -0.752953
 H        -3.255952         1.131733         2.202092
 H        -3.450891         1.615433         0.452319
 H        -3.097685        -0.560198        -0.346572
 H        -4.247747        -1.449106         2.002905
 H        -3.662772        -2.492337         0.812426
 H        -2.543415        -2.579971         3.477219
 H        -0.546639        -1.421815         3.691472
 H        -0.853572         0.702275         3.029753
 H         0.262883         0.007928         1.775579
