19
Iteration:  1153
 O        -1.177596         1.042595        -0.264678
 C        -1.651884         0.520366         0.870133
 C        -3.034396         0.965581         1.345163
 C        -2.791689        -0.452461         0.559378
 C        -2.998928        -1.956806         1.123281
 C        -2.396578        -2.066285         2.477784
 O        -1.088830        -2.629229         2.594151
 C        -1.236767        -1.132962         2.849123
 C        -0.661769        -0.065257         1.971044
 H        -0.824822         1.921392        -0.166249
 H        -3.028104         0.943328         2.458456
 H        -3.253216         1.673654         0.555181
 H        -3.258289        -0.200698        -0.381742
 H        -4.097392        -2.000157         1.177544
 H        -2.665609        -2.671606         0.398709
 H        -3.077320        -2.211141         3.308907
 H        -0.973251        -0.913275         3.822417
 H        -0.101135         0.633098         2.574182
 H         0.200024        -0.449558         1.457021
