19
Iteration:  3081charge 0 multiplicity 1
 O        -0.984181         1.098728        -0.067426
 C        -1.640480         0.413477         0.959074
 C        -3.010773         0.948067         1.038231
 C        -2.905839        -0.459507         0.614528
 C        -3.354408        -1.572296         1.560448
 C        -2.329534        -2.114337         2.513373
 O        -1.047879        -2.656967         1.932108
 C        -1.070026        -1.323966         2.851898
 C        -0.722337        -0.016861         2.159290
 H        -0.485890         0.477607        -0.646247
 H        -3.461418         1.283123         1.964762
 H        -2.965901         1.752468         0.277493
 H        -3.068578        -0.666720        -0.490314
 H        -4.075260        -1.247805         2.369609
 H        -3.828272        -2.382619         1.063707
 H        -2.828267        -2.711902         3.210304
 H        -0.676109        -1.574765         3.827236
 H        -0.664835         0.697065         2.974582
 H         0.369930        -0.095711         2.061882
