19
Iteration:  4808
 O        -0.939792         0.906100        -0.228029
 C        -1.726999         0.424345         0.913895
 C        -3.031609         1.001732         1.228901
 C        -2.961381        -0.366492         0.644809
 C        -3.200078        -1.630567         1.363107
 C        -2.278141        -2.086571         2.528820
 O        -1.009361        -2.623137         2.074535
 C        -1.037739        -1.360138         2.813295
 C        -0.875330        -0.019430         2.167149
 H        -0.447026         1.664424         0.051345
 H        -3.258421         0.947642         2.269897
 H        -3.560173         1.738444         0.682907
 H        -3.293859        -0.443331        -0.389261
 H        -4.271148        -1.495443         1.805565
 H        -3.088400        -2.531782         0.682990
 H        -2.742346        -2.273005         3.533281
 H        -0.483658        -1.414049         3.721666
 H        -1.121037         0.697929         2.940541
 H         0.193480         0.108360         2.041911
