19
Iteration:  4995charge 0 multiplicity 1
 O        -0.975698         1.036167        -0.198937
 C        -1.622478         0.369484         0.864371
 C        -2.983286         0.827792         1.456774
 C        -2.904422        -0.427009         0.665559
 C        -3.185964        -1.737340         1.304798
 C        -2.393733        -2.065311         2.471362
 O        -1.062504        -2.501646         2.173822
 C        -1.177408        -1.221311         2.835562
 C        -0.730462        -0.092798         1.926723
 H        -0.863910         1.925098         0.145145
 H        -3.167167         0.849130         2.583607
 H        -3.351491         1.706756         1.025788
 H        -3.236048        -0.443521        -0.395089
 H        -4.203147        -1.535215         1.493712
 H        -3.193316        -2.612398         0.613259
 H        -3.004174        -2.485982         3.361554
 H        -0.972864        -1.130691         3.918870
 H        -0.317739         0.772321         2.560080
 H         0.297993        -0.352883         1.602700
