19
Iteration:   540charge 0 multiplicity 1
 O        -1.001258         1.034984        -0.183475
 C        -1.702625         0.383824         0.823990
 C        -3.040792         0.888715         1.115509
 C        -2.828134        -0.534991         0.466055
 C        -3.144398        -1.774828         1.344240
 C        -2.279191        -2.096307         2.492233
 O        -0.872535        -2.478574         2.362807
 C        -1.252390        -1.191205         2.945833
 C        -0.921509         0.086621         2.140974
 H        -0.391844         0.298730        -0.507422
 H        -3.298062         0.989545         2.190392
 H        -3.641758         1.505877         0.511772
 H        -3.198760        -0.679381        -0.588833
 H        -4.132333        -1.549167         1.698748
 H        -3.364811        -2.581374         0.690529
 H        -2.683488        -2.665120         3.287437
 H        -1.026595        -1.120658         3.986670
 H        -0.992021         0.987805         2.822064
 H         0.149146        -0.131857         1.912330
