19
Iteration:   555charge 0 multiplicity 1
 O        -0.975285         1.005787        -0.185289
 C        -1.675747         0.265515         0.874766
 C        -3.110588         0.807129         1.046886
 C        -2.920822        -0.504989         0.487432
 C        -3.228527        -1.732811         1.323534
 C        -2.244935        -2.168858         2.521937
 O        -0.896582        -2.359308         2.276308
 C        -1.253686        -1.134528         2.995461
 C        -0.849833         0.051631         2.160766
 H         0.002646         0.870635        -0.189893
 H        -3.503303         0.829465         2.068964
 H        -3.118524         1.818960         0.559570
 H        -2.973321        -0.581010        -0.561818
 H        -4.103370        -1.625190         2.050440
 H        -3.345103        -2.714223         0.750812
 H        -2.801498        -2.909683         3.132175
 H        -0.854521        -1.064902         4.098496
 H        -0.798898         1.081402         2.707716
 H         0.256335         0.049136         1.812526
