19
Iteration:   508charge 0 multiplicity 1
 O        -0.961252         0.983860        -0.162109
 C        -1.696186         0.407911         0.898242
 C        -3.147078         0.882374         1.109696
 C        -2.885416        -0.514495         0.518133
 C        -3.049384        -1.867997         1.232311
 C        -2.321135        -2.039234         2.589968
 O        -1.052426        -2.518083         2.341964
 C        -1.157505        -1.140529         2.889708
 C        -0.742485         0.133202         2.189559
 H        -1.400293         0.621407        -0.917159
 H        -3.555195         0.900458         2.129703
 H        -3.592303         1.578171         0.423676
 H        -3.064781        -0.696719        -0.596419
 H        -4.126862        -2.021342         1.433344
 H        -2.641208        -2.614128         0.551421
 H        -2.808306        -2.470761         3.411392
 H        -0.838342        -1.098356         3.930952
 H        -0.635407         1.157575         2.699805
 H         0.278681        -0.047763         1.751557
