19
Iteration:  4900
 O        -0.938671         0.960993        -0.172894
 C        -1.644936         0.393273         0.901373
 C        -2.998951         0.923884         1.283067
 C        -2.936527        -0.467467         0.621968
 C        -3.339779        -1.681633         1.377610
 C        -2.336383        -2.013647         2.478580
 O        -0.992662        -2.559150         2.068456
 C        -1.108891        -1.318697         2.878997
 C        -0.689268        -0.020341         2.093771
 H        -0.897944         1.958527        -0.101262
 H        -3.312776         1.027084         2.409381
 H        -3.438029         1.644675         0.622903
 H        -3.386122        -0.381796        -0.355432
 H        -4.395620        -1.748803         1.931467
 H        -3.435251        -2.414812         0.541904
 H        -2.771462        -2.609124         3.237223
 H        -0.887923        -1.585984         3.945885
 H        -0.869683         0.805514         2.810686
 H         0.365601         0.174582         1.812645
