19
Iteration:  1969charge 0 multiplicity 1
 O        -1.067400         0.958897        -0.260903
 C        -1.647920         0.515628         0.921652
 C        -2.911659         0.997077         1.379541
 C        -2.896787        -0.373422         0.689009
 C        -3.302711        -1.681848         1.252259
 C        -2.359648        -2.090234         2.404803
 O        -1.053085        -2.644133         2.276913
 C        -1.108929        -1.275884         2.826170
 C        -0.672152        -0.043239         2.064660
 H        -0.548767         0.182302        -0.587256
 H        -3.047156         0.977495         2.419112
 H        -3.329421         1.885477         0.887059
 H        -3.205485        -0.144148        -0.387293
 H        -4.361520        -1.887817         1.425063
 H        -3.183142        -2.397644         0.351607
 H        -2.935872        -2.580078         3.268389
 H        -1.008872        -1.274893         3.928752
 H        -0.672741         0.768817         2.920101
 H         0.420116        -0.050333         1.877037
