19
Iteration:  3909charge 0 multiplicity 1
 O        -0.966724         0.938193        -0.114161
 C        -1.609659         0.382115         0.993518
 C        -2.999700         0.958444         1.195413
 C        -2.881770        -0.444427         0.623186
 C        -3.356033        -1.626007         1.384711
 C        -2.381544        -2.099941         2.423050
 O        -0.907685        -2.514011         2.145781
 C        -1.179424        -1.336547         2.797131
 C        -0.701678        -0.048217         2.050975
 H        -1.310027         1.874321        -0.166864
 H        -3.416426         0.746939         2.227550
 H        -3.411520         1.715156         0.522831
 H        -2.961814        -0.635343        -0.395059
 H        -4.019533        -1.103133         2.132547
 H        -3.865191        -2.338428         0.803420
 H        -2.998335        -2.636544         3.195618
 H        -1.000896        -1.370844         3.919523
 H        -0.631693         0.767800         2.844317
 H         0.338904        -0.147755         1.606359
