19
Iteration:  4427charge 0 multiplicity 1
 O        -1.064554         1.144446        -0.161109
 C        -1.680604         0.395204         0.924499
 C        -3.000928         0.786339         1.494004
 C        -2.878787        -0.363167         0.550629
 C        -3.197366        -1.746972         1.123040
 C        -2.399191        -1.952586         2.484858
 O        -1.074894        -2.534830         2.477306
 C        -1.201547        -1.202394         2.816240
 C        -0.528318        -0.251766         1.759393
 H        -0.404373         1.679759         0.309743
 H        -3.448977         0.321280         2.418364
 H        -3.389450         1.725379         1.220645
 H        -3.300229        -0.171818        -0.480577
 H        -4.311669        -1.839140         1.284323
 H        -2.951665        -2.591142         0.451612
 H        -2.915271        -2.444240         3.347995
 H        -1.215534        -0.814850         3.929349
 H         0.144500         0.451271         2.258571
 H         0.065111        -0.948772         1.190411
