19
Iteration:  1281
 O        -0.828749         0.969342        -0.083050
 C        -1.682146         0.360096         0.892442
 C        -3.112873         0.916517         1.001166
 C        -2.952940        -0.508405         0.558627
 C        -3.342457        -1.738818         1.422202
 C        -2.290302        -2.060352         2.442084
 O        -0.882251        -2.534708         2.235824
 C        -1.143848        -1.221297         2.910204
 C        -0.826276         0.023893         2.119074
 H        -1.052186         1.929274        -0.210254
 H        -3.422257         1.068578         2.026177
 H        -3.531104         1.740489         0.362516
 H        -3.016246        -0.610908        -0.511911
 H        -4.222498        -1.659280         2.042902
 H        -3.622502        -2.548412         0.694740
 H        -2.650795        -2.563867         3.305570
 H        -0.914751        -1.243092         4.046409
 H        -0.741532         0.880316         2.845849
 H         0.175671        -0.122527         1.621110
