19
Iteration:   534
 O        -0.984454         1.037161        -0.197348
 C        -1.729239         0.443475         0.845601
 C        -3.035878         0.890084         1.134565
 C        -2.777657        -0.551570         0.509101
 C        -3.173620        -1.770247         1.313428
 C        -2.308008        -2.058378         2.513887
 O        -0.854991        -2.504462         2.373985
 C        -1.251771        -1.211088         2.905602
 C        -0.903678         0.040092         2.129680
 H        -0.619476         0.267033        -0.624564
 H        -3.375232         1.058790         2.154534
 H        -3.717229         1.418701         0.433861
 H        -3.112430        -0.613908        -0.493656
 H        -4.227418        -1.667172         1.745924
 H        -3.159630        -2.735991         0.681989
 H        -2.779237        -2.719529         3.283965
 H        -1.127816        -0.950613         4.015344
 H        -1.048693         0.967089         2.715154
 H         0.170278         0.161635         1.859467
