19
Iteration:  4029charge 0 multiplicity 1
 O        -0.936204         0.951076        -0.169111
 C        -1.667758         0.354126         0.934841
 C        -2.956030         0.934215         1.146209
 C        -2.941979        -0.464467         0.619622
 C        -3.388998        -1.639351         1.541270
 C        -2.232286        -2.210188         2.431944
 O        -1.033900        -2.436518         1.978835
 C        -1.171927        -1.250783         2.879334
 C        -0.761152        -0.038899         2.151317
 H        -0.247449         1.518454         0.222199
 H        -3.181980         1.113174         2.245341
 H        -3.196227         1.709006         0.373377
 H        -3.072934        -0.499884        -0.430731
 H        -4.243883        -1.264345         2.156949
 H        -3.666399        -2.393734         0.694914
 H        -2.529873        -2.898198         3.319701
 H        -0.938084        -1.468911         3.934289
 H        -0.931842         0.825850         2.922637
 H         0.374126        -0.003048         1.955032
