19
Iteration:  3684
 O        -1.052856         1.137503        -0.134881
 C        -1.647828         0.386744         0.802123
 C        -3.017487         0.811113         1.440112
 C        -2.937335        -0.361385         0.622784
 C        -3.064508        -1.749189         1.160046
 C        -2.421890        -1.913358         2.459858
 O        -1.085229        -2.675393         2.443238
 C        -1.147389        -1.169748         2.827802
 C        -0.677463        -0.228087         1.849329
 H        -0.333193         1.597613         0.301145
 H        -3.110671         0.661148         2.536915
 H        -3.436674         1.827657         1.057659
 H        -3.390485        -0.319695        -0.316145
 H        -4.140641        -1.718495         1.179279
 H        -2.824764        -2.576330         0.392437
 H        -3.121107        -2.200443         3.285360
 H        -1.012634        -1.129429         3.928903
 H        -0.268754         0.781566         2.383143
 H         0.213368        -0.542261         1.194299
