19
Iteration:  4603
 O        -1.164990         0.950893        -0.228339
 C        -1.656816         0.404147         0.987464
 C        -2.999181         0.980169         1.287772
 C        -2.803920        -0.348032         0.560328
 C        -3.182695        -1.692851         1.263013
 C        -2.417751        -2.006331         2.513036
 O        -1.037622        -2.641230         2.237312
 C        -1.140407        -1.358510         2.811498
 C        -0.640182        -0.021123         2.124566
 H        -0.794286         1.815395        -0.064247
 H        -3.408555         0.811266         2.307903
 H        -3.142493         1.834436         0.633211
 H        -2.731272        -0.359703        -0.509774
 H        -4.226790        -1.711535         1.521819
 H        -3.023172        -2.513443         0.583267
 H        -3.005396        -2.417579         3.308063
 H        -0.684497        -1.371553         3.872651
 H        -0.507682         0.707588         2.952723
 H         0.253595        -0.155010         1.494458
