19
Iteration:  4764charge 0 multiplicity 1
 O        -1.033977         0.845113        -0.136400
 C        -1.638945         0.379783         1.013060
 C        -2.967429         0.926075         1.260388
 C        -2.839608        -0.442116         0.585578
 C        -3.344723        -1.719849         1.433017
 C        -2.280138        -2.074019         2.422486
 O        -0.966840        -2.378994         1.988019
 C        -1.233460        -1.228497         2.905165
 C        -0.715963        -0.074672         2.116278
 H        -0.924372         1.782930        -0.157162
 H        -3.440201         1.025319         2.243897
 H        -3.322168         1.648420         0.626321
 H        -2.968555        -0.297108        -0.452014
 H        -4.309069        -1.470470         2.002328
 H        -3.355450        -2.455198         0.598031
 H        -2.644961        -2.936849         3.067926
 H        -1.126233        -1.206085         3.975358
 H        -0.471955         0.743466         2.779257
 H         0.225979        -0.404890         1.670136
