19
Iteration:  4974
 O        -1.131478         1.012623        -0.208442
 C        -1.601110         0.347069         0.920062
 C        -2.894395         0.891149         1.400597
 C        -2.840112        -0.445240         0.495716
 C        -3.326529        -1.672868         1.333710
 C        -2.331177        -2.087670         2.449347
 O        -0.999183        -2.532737         2.200625
 C        -1.200724        -1.216877         2.851941
 C        -0.678736        -0.063268         2.048802
 H        -0.644685         1.819914         0.028295
 H        -3.189388         0.687099         2.499884
 H        -3.411118         1.733243         1.046246
 H        -3.144587        -0.236498        -0.550615
 H        -4.301597        -1.393792         1.749609
 H        -3.397888        -2.563334         0.679778
 H        -2.889214        -2.814024         3.076662
 H        -1.003783        -1.391774         3.896270
 H        -0.402323         0.774380         2.703573
 H         0.351234        -0.232519         1.802935
