19
Iteration:  1778charge 0 multiplicity 1
 O        -1.122692         1.126456        -0.204167
 C        -1.600332         0.408004         0.899339
 C        -2.957161         0.890990         1.408304
 C        -2.808507        -0.429324         0.606542
 C        -3.043142        -1.809833         1.183105
 C        -2.500941        -1.955516         2.461671
 O        -1.179924        -2.633616         2.508303
 C        -1.222169        -1.255851         2.788932
 C        -0.547566        -0.166763         1.831661
 H        -1.213511         2.062969         0.041940
 H        -2.965371         0.977255         2.554030
 H        -3.365266         1.904403         1.027637
 H        -3.124983        -0.196251        -0.444912
 H        -4.129101        -1.927049         1.316354
 H        -2.906611        -2.602990         0.429521
 H        -3.153501        -2.149248         3.284225
 H        -1.053306        -1.014264         3.856203
 H        -0.031642         0.617981         2.439202
 H         0.340059        -0.654608         1.297243
