19
Iteration:   380
 O        -0.991671         0.992466        -0.234260
 C        -1.721171         0.448443         0.920622
 C        -3.207375         0.695814         1.342556
 C        -2.841503        -0.461295         0.503904
 C        -2.970556        -1.847914         1.072151
 C        -2.390170        -1.963614         2.506052
 O        -1.106765        -2.492313         2.659763
 C        -1.230821        -1.017805         2.862476
 C        -0.665446        -0.062461         1.864447
 H        -0.312332         1.562806         0.235383
 H        -3.413775         0.515930         2.357501
 H        -3.658009         1.580889         0.905208
 H        -2.969917        -0.431440        -0.561702
 H        -3.954187        -2.302742         0.987875
 H        -2.299619        -2.506213         0.464924
 H        -2.990894        -2.412641         3.293559
 H        -0.982695        -0.764448         3.904133
 H        -0.255848         0.770344         2.380511
 H         0.130564        -0.414712         1.186712
