19
Iteration:  4143
 O        -0.928127         0.851340        -0.134233
 C        -1.647276         0.412787         1.004568
 C        -3.111928         0.969555         1.239713
 C        -2.888661        -0.397506         0.577806
 C        -3.327115        -1.681988         1.434274
 C        -2.339670        -2.040964         2.436875
 O        -0.950492        -2.481394         2.063766
 C        -1.136786        -1.267275         2.832939
 C        -0.755645        -0.075209         2.095558
 H        -0.251835         1.488573         0.084679
 H        -3.494140         0.865609         2.271530
 H        -3.513303         1.765652         0.692057
 H        -2.989105        -0.501432        -0.513609
 H        -4.309733        -1.465145         1.948995
 H        -3.480180        -2.567768         0.866799
 H        -2.789837        -2.817062         2.979977
 H        -0.792319        -1.185579         3.896887
 H        -0.573599         0.881672         2.713656
 H         0.143473        -0.327953         1.537650
