19
Iteration:  4304charge 0 multiplicity 1
 O        -1.145203         1.180124        -0.226891
 C        -1.609328         0.369227         0.895231
 C        -2.950774         0.846020         1.439968
 C        -2.863408        -0.356991         0.543448
 C        -3.125549        -1.777914         1.167302
 C        -2.379324        -1.978525         2.531377
 O        -1.130948        -2.726716         2.403798
 C        -1.178875        -1.166318         2.842225
 C        -0.647891        -0.135495         1.905031
 H        -0.294992         1.653456        -0.018110
 H        -2.980567         0.695538         2.485760
 H        -3.345124         1.849817         1.095781
 H        -3.206499        -0.274520        -0.468987
 H        -4.170055        -1.743878         1.447137
 H        -3.122717        -2.728000         0.523701
 H        -3.032728        -2.460734         3.333305
 H        -0.855536        -0.849274         3.819822
 H        -0.323793         0.647122         2.522956
 H         0.206315        -0.555032         1.351474
