19
Iteration:  3519
 O        -0.928650         1.058115        -0.172574
 C        -1.633965         0.445989         0.888888
 C        -2.991605         0.881539         1.323128
 C        -2.990213        -0.382874         0.557649
 C        -3.259841        -1.715754         1.313597
 C        -2.367527        -2.099621         2.454733
 O        -1.068052        -2.613808         2.282499
 C        -1.130016        -1.324535         2.951734
 C        -0.680798        -0.041983         1.945610
 H        -1.101824         2.039277        -0.222850
 H        -3.149922         0.866749         2.436056
 H        -3.180598         1.889675         0.898184
 H        -3.119338        -0.394051        -0.494463
 H        -4.323707        -1.736366         1.556362
 H        -3.338093        -2.532338         0.483139
 H        -2.852096        -2.522629         3.344978
 H        -0.793955        -1.347101         3.984757
 H        -0.401650         0.902097         2.413373
 H         0.260410        -0.342569         1.436750
