19
Iteration:  1380
 O        -0.852741         0.889169        -0.085255
 C        -1.726435         0.384701         0.958252
 C        -3.118600         0.992916         0.929350
 C        -2.907936        -0.456186         0.640830
 C        -3.317224        -1.655623         1.445199
 C        -2.247024        -2.206331         2.546135
 O        -0.907258        -2.417282         2.032767
 C        -1.136150        -1.323427         2.885173
 C        -0.920736         0.070706         2.192238
 H         0.068406         0.626767         0.080135
 H        -3.628356         1.292800         1.803822
 H        -3.437923         1.815238         0.292116
 H        -3.053725        -0.766327        -0.406060
 H        -4.119154        -1.283710         2.062418
 H        -3.732591        -2.453824         0.828905
 H        -2.474449        -2.934302         3.248134
 H        -0.659652        -1.299286         3.930729
 H        -1.010919         0.933609         2.908045
 H         0.105146        -0.070249         1.737626
