19
Iteration:  3356
 O        -0.910908         0.723490        -0.160175
 C        -1.689939         0.347556         1.000678
 C        -3.032090         0.974167         1.154191
 C        -2.885234        -0.360668         0.636608
 C        -3.321610        -1.565924         1.436091
 C        -2.254842        -2.146262         2.495079
 O        -1.024563        -2.411720         1.892962
 C        -1.070130        -1.336775         2.828130
 C        -0.811791         0.029884         2.301681
 H        -0.748807         1.654191        -0.013804
 H        -3.296805         1.243653         2.208100
 H        -3.417539         1.623820         0.324998
 H        -3.228075        -0.605997        -0.404692
 H        -4.306176        -1.549955         1.962095
 H        -3.524564        -2.316287         0.722128
 H        -2.679558        -2.729605         3.329321
 H        -0.809895        -1.494153         3.921929
 H        -1.027545         0.837103         3.003105
 H         0.205324         0.128214         1.799141
