19
Iteration:  2852
 O        -0.936263         0.984243        -0.130374
 C        -1.642434         0.405815         0.931728
 C        -3.040390         1.012164         1.279193
 C        -2.973412        -0.324884         0.682662
 C        -3.276261        -1.667083         1.334937
 C        -2.284232        -2.138272         2.479228
 O        -1.034127        -2.601497         2.178211
 C        -1.190954        -1.273369         2.838615
 C        -0.692289        -0.060128         2.035384
 H        -0.947126         0.322360        -0.796730
 H        -3.158783         1.254462         2.333177
 H        -3.182538         1.980967         0.708402
 H        -3.316017        -0.256056        -0.318001
 H        -4.299748        -1.729898         1.504781
 H        -3.073876        -2.361739         0.510118
 H        -2.788609        -2.773025         3.136414
 H        -0.832244        -1.449659         3.893541
 H        -0.530749         0.880963         2.533152
 H         0.259508        -0.350152         1.572361
