19
Iteration:  1761
 O        -1.155187         1.214153        -0.203816
 C        -1.613320         0.364646         0.847149
 C        -3.003779         0.803653         1.398509
 C        -2.810959        -0.384586         0.522314
 C        -3.168293        -1.697806         1.133726
 C        -2.399257        -1.911699         2.554099
 O        -1.209106        -2.705049         2.523856
 C        -1.106826        -1.201933         2.832983
 C        -0.541261        -0.235020         1.887175
 H        -0.472897         1.820218         0.063699
 H        -3.427603         0.645293         2.351232
 H        -3.444468         1.603624         0.812451
 H        -3.056141        -0.244300        -0.508860
 H        -4.262208        -1.860684         1.101218
 H        -2.692245        -2.504384         0.514643
 H        -2.953115        -2.223460         3.507350
 H        -0.778496        -1.020326         3.861655
 H        -0.210006         0.574384         2.556374
 H         0.242512        -0.692227         1.332140
