19
Iteration:  2828charge 0 multiplicity 1
 O        -1.071708         0.926018        -0.226870
 C        -1.579922         0.435730         0.965381
 C        -2.937555         0.985372         1.449828
 C        -2.820828        -0.378068         0.635725
 C        -3.240744        -1.767715         1.190518
 C        -2.391654        -2.013402         2.483743
 O        -1.065778        -2.471477         2.187353
 C        -1.167974        -1.254495         2.787993
 C        -0.709628        -0.118879         2.131331
 H        -1.045780         0.113735        -0.763809
 H        -3.057263         0.934755         2.531418
 H        -3.450407         1.963512         1.042249
 H        -3.183328        -0.223973        -0.380714
 H        -4.290389        -1.614384         1.358479
 H        -3.201658        -2.482096         0.364677
 H        -2.871954        -2.608450         3.244856
 H        -0.842213        -1.330784         3.871646
 H        -0.587543         0.778584         2.735261
 H         0.313834        -0.369443         1.711752
