19
Iteration:  2568charge 0 multiplicity 1
 O        -1.107794         1.158435        -0.054418
 C        -1.613886         0.288416         0.889135
 C        -2.965177         0.816162         1.357973
 C        -2.782286        -0.494308         0.556724
 C        -3.305936        -1.623071         1.396199
 C        -2.417687        -1.966865         2.442480
 O        -1.138734        -2.510744         2.180897
 C        -1.127777        -1.189065         2.846955
 C        -0.580538        -0.182441         1.932150
 H        -0.186130         1.044913        -0.192992
 H        -3.195907         0.472692         2.390367
 H        -3.265592         1.543430         0.614479
 H        -3.041802        -0.528413        -0.551804
 H        -4.379303        -1.608818         1.678162
 H        -3.375284        -2.521160         0.792087
 H        -2.915666        -2.445680         3.271225
 H        -0.836058        -1.118651         3.951928
 H        -0.214811         0.773361         2.408928
 H         0.269116        -0.659681         1.374642
