19
Iteration:  1519
 O        -0.858960         0.825134        -0.063029
 C        -1.672933         0.404358         0.946782
 C        -2.994602         0.924030         1.231936
 C        -2.868427        -0.445747         0.534401
 C        -3.266324        -1.779739         1.302094
 C        -2.335991        -2.068279         2.465387
 O        -0.951605        -2.472758         2.149692
 C        -1.206317        -1.185873         2.820182
 C        -0.818345         0.126817         2.139786
 H        -1.472449         0.950863        -0.833492
 H        -3.228263         1.020822         2.319858
 H        -3.552729         1.656631         0.673611
 H        -3.100778        -0.396890        -0.548809
 H        -4.242255        -1.556510         1.759961
 H        -3.605243        -2.660843         0.757143
 H        -2.734201        -2.674113         3.370711
 H        -1.018043        -1.405546         3.877974
 H        -0.895011         0.884115         2.887051
 H         0.192141        -0.072319         1.879207
