19
Iteration:  3214charge 0 multiplicity 1
 O        -0.858304         0.959314        -0.049097
 C        -1.699446         0.347853         0.966549
 C        -3.056396         1.021940         1.121360
 C        -2.921817        -0.409360         0.658686
 C        -3.333977        -1.569218         1.494510
 C        -2.248791        -2.066341         2.497658
 O        -1.003033        -2.635466         1.933769
 C        -1.077014        -1.337862         2.824589
 C        -0.839181        -0.013127         2.148978
 H        -0.880878         0.368347        -0.828925
 H        -3.507045         1.395497         2.105861
 H        -3.278475         1.759792         0.368296
 H        -3.014999        -0.439297        -0.433995
 H        -4.211051        -1.306141         2.126823
 H        -3.655915        -2.382031         0.896732
 H        -2.824219        -2.594001         3.241394
 H        -0.428223        -1.347572         3.753729
 H        -1.153627         0.705340         2.942655
 H         0.266579         0.059136         1.938601
