19
Iteration:  3411charge 0 multiplicity 1
 O        -0.878653         1.038077        -0.186804
 C        -1.624043         0.414775         0.966656
 C        -3.068064         0.929121         1.152941
 C        -2.903062        -0.457426         0.622159
 C        -3.279089        -1.647869         1.521178
 C        -2.314732        -2.150140         2.515578
 O        -1.096593        -2.621950         1.971552
 C        -1.141386        -1.242053         2.890410
 C        -0.790433         0.011350         2.100034
 H        -0.183339         1.441463         0.345596
 H        -3.497447         1.334082         2.095028
 H        -3.415297         1.661826         0.323266
 H        -3.032458        -0.818073        -0.427229
 H        -4.060583        -1.270709         2.243982
 H        -3.435510        -2.515808         0.919828
 H        -2.726715        -2.995828         3.093443
 H        -0.683118        -1.438226         3.894706
 H        -0.806678         0.865223         2.779987
 H         0.296337        -0.125886         1.753935
