19
Iteration:  4400charge 0 multiplicity 1
 O        -1.241702         1.190147        -0.238724
 C        -1.638965         0.412134         0.902729
 C        -2.885611         0.837159         1.450106
 C        -2.807531        -0.436866         0.597795
 C        -3.028930        -1.756946         1.133193
 C        -2.415556        -1.898562         2.493413
 O        -1.237703        -2.682871         2.489453
 C        -1.175617        -1.265308         2.809396
 C        -0.531825        -0.168067         1.849582
 H        -1.001962         1.998649         0.224540
 H        -3.033175         0.673568         2.497079
 H        -3.249865         1.871436         1.126779
 H        -3.061684        -0.263563        -0.450997
 H        -4.104621        -1.832040         1.240385
 H        -2.807880        -2.594666         0.464389
 H        -3.062971        -2.310214         3.285374
 H        -1.040326        -1.115278         3.841931
 H        -0.009558         0.616676         2.471113
 H         0.242046        -0.754040         1.273427
