19
Iteration:  4809
 O        -0.935930         0.906234        -0.221658
 C        -1.734178         0.416719         0.912318
 C        -3.034516         1.003168         1.231003
 C        -2.964578        -0.374611         0.644076
 C        -3.195465        -1.633796         1.369021
 C        -2.282075        -2.080559         2.534335
 O        -1.009464        -2.621114         2.078004
 C        -1.027164        -1.362482         2.802557
 C        -0.882012        -0.019658         2.162471
 H        -0.437240         1.666132         0.077912
 H        -3.242186         0.970420         2.256880
 H        -3.564311         1.782845         0.680634
 H        -3.286812        -0.411190        -0.427171
 H        -4.245706        -1.479637         1.800697
 H        -3.081049        -2.492643         0.662061
 H        -2.756268        -2.282281         3.498540
 H        -0.470029        -1.395586         3.699084
 H        -1.127922         0.712605         2.921907
 H         0.183075         0.062277         2.064081
