19
Iteration:  1876charge 0 multiplicity 1
 O        -1.188630         1.218428        -0.212523
 C        -1.517367         0.399160         0.850013
 C        -3.001797         0.850732         1.365603
 C        -2.764409        -0.399482         0.485905
 C        -3.152029        -1.729572         1.261549
 C        -2.431121        -1.985078         2.614784
 O        -1.192290        -2.673706         2.343891
 C        -1.163500        -1.267857         2.890268
 C        -0.622349        -0.185165         1.913951
 H        -0.326757         1.634318        -0.152811
 H        -3.099574         0.952507         2.453871
 H        -3.235061         1.955785         1.003768
 H        -3.109376        -0.381406        -0.576354
 H        -4.237105        -1.572132         1.429558
 H        -3.138255        -2.652710         0.724204
 H        -2.968146        -2.326351         3.486712
 H        -0.637298        -1.353850         3.860016
 H        -0.180292         0.581810         2.555706
 H         0.246908        -0.655574         1.345961
