19
Iteration:  2756charge 0 multiplicity 1
 O        -1.033610         1.256225        -0.052380
 C        -1.619044         0.444291         0.924725
 C        -3.141000         0.911746         1.186610
 C        -2.898783        -0.375217         0.513938
 C        -3.167712        -1.675656         1.409452
 C        -2.314977        -2.062963         2.520652
 O        -1.128726        -2.709253         2.318372
 C        -1.140250        -1.231828         2.871932
 C        -0.593215        -0.275334         1.872434
 H        -0.346126         0.771595        -0.498135
 H        -3.437394         0.988896         2.178174
 H        -3.429206         1.864685         0.660183
 H        -3.083221        -0.422597        -0.531624
 H        -4.285205        -1.501046         1.781664
 H        -3.334484        -2.456526         0.627873
 H        -2.956635        -2.252568         3.369813
 H        -0.724050        -1.196302         3.865844
 H         0.080466         0.404241         2.426488
 H         0.011476        -0.676927         1.094455
