19
Iteration:  3629
 O        -1.099101         1.048300        -0.307428
 C        -1.651513         0.439583         0.930611
 C        -2.968714         0.899429         1.493700
 C        -2.899807        -0.326413         0.619940
 C        -3.129656        -1.707910         1.155987
 C        -2.437179        -2.034172         2.362929
 O        -1.026222        -2.603977         2.452273
 C        -1.215024        -1.209231         2.872041
 C        -0.629687        -0.246549         1.964594
 H        -0.929123         1.984741        -0.203446
 H        -3.187864         1.082229         2.611960
 H        -3.415269         1.759406         0.891832
 H        -3.348390        -0.331540        -0.317019
 H        -4.171479        -1.946095         1.156974
 H        -2.472836        -2.272094         0.417154
 H        -3.034695        -2.499141         3.164637
 H        -1.093494        -1.216411         3.974121
 H         0.058153         0.428437         2.628432
 H         0.177525        -0.786407         1.380800
