19
Iteration:  4170
 O        -1.105611         0.895444        -0.133393
 C        -1.581903         0.407448         1.007321
 C        -3.020009         0.929849         1.206316
 C        -2.857546        -0.388819         0.603957
 C        -3.236855        -1.735385         1.332566
 C        -2.361666        -1.984138         2.520624
 O        -1.130264        -2.578026         2.047498
 C        -1.037376        -1.293192         2.838740
 C        -0.691858         0.009801         2.153535
 H        -0.417191         1.558355        -0.103495
 H        -3.397139         1.039472         2.231402
 H        -3.384375         1.757218         0.517148
 H        -3.038925        -0.417965        -0.482891
 H        -4.255444        -1.641599         1.673479
 H        -3.037971        -2.671340         0.652708
 H        -2.945208        -2.540978         3.365170
 H        -0.498094        -1.365609         3.779284
 H        -0.785186         0.874498         2.770724
 H         0.376615         0.066554         1.827529
