19
Iteration:   881
 O        -0.941789         0.849841        -0.190966
 C        -1.660984         0.405584         1.004080
 C        -3.034516         0.924214         1.099595
 C        -2.843169        -0.455170         0.611011
 C        -3.301444        -1.780272         1.437586
 C        -2.351111        -2.196596         2.402170
 O        -0.886562        -2.402114         2.252149
 C        -1.263653        -1.253985         2.805066
 C        -0.742296         0.099462         2.120804
 H        -1.228940         1.779484        -0.370019
 H        -3.299152         1.057256         2.179814
 H        -3.426100         1.791810         0.471687
 H        -2.691904        -0.611261        -0.473716
 H        -4.300668        -1.516016         1.901934
 H        -3.569649        -2.546345         0.712016
 H        -2.802221        -2.756388         3.219028
 H        -1.213759        -1.061336         3.897798
 H        -0.682963         0.880648         2.840104
 H         0.248779        -0.016748         1.695432
