19
Iteration:   687
 O        -0.798643         0.702559         0.054836
 C        -1.676081         0.299271         0.959718
 C        -3.173619         0.877390         0.950177
 C        -2.834464        -0.565255         0.561602
 C        -3.307078        -1.715183         1.466338
 C        -2.296623        -2.110055         2.549520
 O        -0.915791        -2.236935         1.900775
 C        -1.172576        -1.147477         2.857390
 C        -0.884694         0.209341         2.302449
 H        -1.160094         0.702908        -0.854429
 H        -3.638108         1.015172         1.960948
 H        -3.470070         1.608525         0.219698
 H        -2.894462        -0.771715        -0.511908
 H        -4.277916        -1.411356         1.911822
 H        -3.453677        -2.698117         0.949226
 H        -2.456990        -2.922195         3.264857
 H        -0.760684        -1.321847         3.901553
 H        -1.070700         1.097499         3.027768
 H         0.171018         0.169373         1.891746
