19
Iteration:  3631
 O        -1.114458         1.036196        -0.300451
 C        -1.645287         0.457410         0.921930
 C        -2.962729         0.905285         1.501161
 C        -2.897875        -0.330604         0.616640
 C        -3.101851        -1.687262         1.164266
 C        -2.441647        -2.035876         2.363269
 O        -1.024982        -2.615964         2.450019
 C        -1.224094        -1.207279         2.868475
 C        -0.630676        -0.245628         1.976676
 H        -0.966493         1.979348        -0.199622
 H        -3.179099         1.145673         2.543533
 H        -3.449862         1.684598         0.829376
 H        -3.341906        -0.293127        -0.355371
 H        -4.151496        -2.013675         1.157956
 H        -2.470107        -2.233603         0.442914
 H        -3.068726        -2.490350         3.148904
 H        -1.081590        -1.260187         3.971712
 H         0.039971         0.362488         2.567583
 H         0.149173        -0.787867         1.373171
