19
Iteration:  3625charge 0 multiplicity 1
 O        -1.068504         1.066958        -0.312006
 C        -1.651876         0.401690         0.944626
 C        -2.989639         0.910761         1.479058
 C        -2.905946        -0.322907         0.645999
 C        -3.165891        -1.756524         1.116113
 C        -2.405317        -2.031381         2.400952
 O        -1.039981        -2.574648         2.450638
 C        -1.214180        -1.241172         2.883668
 C        -0.606568        -0.227422         1.930478
 H        -0.842615         2.028596        -0.152345
 H        -3.157742         0.841230         2.580087
 H        -3.299133         1.855358         1.094436
 H        -3.382814        -0.303456        -0.395037
 H        -4.281048        -1.865924         1.150537
 H        -2.644654        -2.390069         0.366942
 H        -2.958999        -2.504371         3.198678
 H        -1.114901        -1.039780         3.947887
 H        -0.071859         0.545781         2.603638
 H         0.162428        -0.752499         1.396222
