19
Iteration:  3661charge 0 multiplicity 1
 O        -1.084876         1.054239        -0.243514
 C        -1.704753         0.487008         0.916269
 C        -2.997325         1.068079         1.488242
 C        -2.927269        -0.374889         0.585808
 C        -3.082473        -1.823990         1.158475
 C        -2.413397        -2.093440         2.444085
 O        -1.138264        -2.638690         2.495706
 C        -1.112903        -1.238804         2.796054
 C        -0.646664        -0.195808         1.898624
 H        -0.617915         1.883941         0.065878
 H        -3.287245         1.017568         2.592554
 H        -3.122515         2.080583         0.995679
 H        -3.129605        -0.367207        -0.448848
 H        -3.997925        -2.334647         0.900753
 H        -2.367796        -2.347250         0.409386
 H        -3.134672        -2.418388         3.232443
 H        -0.738050        -1.184690         3.852812
 H        -0.182501         0.681227         2.568876
 H         0.155827        -0.511155         1.169482
