19
Iteration:  1083charge 0 multiplicity 1
 O        -1.099429         1.295126        -0.125776
 C        -1.596443         0.426519         0.877765
 C        -3.054934         0.774398         1.340846
 C        -2.856612        -0.519478         0.530804
 C        -3.063337        -1.893453         1.098818
 C        -2.417701        -2.048750         2.571219
 O        -1.060841        -2.543701         2.757273
 C        -1.328999        -1.088435         2.734997
 C        -0.550168        -0.238031         1.657443
 H        -0.656745         2.001882         0.377667
 H        -3.415294         0.870499         2.336661
 H        -3.349853         1.633148         0.681212
 H        -3.450471        -0.382185        -0.407242
 H        -4.141747        -1.991113         1.024578
 H        -2.672852        -2.678715         0.387203
 H        -2.953426        -2.097133         3.532831
 H        -1.244049        -0.705923         3.861681
 H         0.173042         0.408632         2.075561
 H         0.093336        -0.940837         1.116066
