19
Iteration:   784
 O        -0.941347         0.804950        -0.100238
 C        -1.698690         0.349434         0.950902
 C        -3.063832         0.895493         0.985824
 C        -2.814866        -0.595194         0.490626
 C        -3.347441        -1.621771         1.508286
 C        -2.226880        -2.129436         2.524553
 O        -0.947413        -2.235770         1.992679
 C        -1.110106        -1.269687         2.921851
 C        -0.962210         0.041111         2.279349
 H         0.002061         1.033509         0.011421
 H        -3.681873         1.144742         1.909856
 H        -3.243801         1.592714         0.189613
 H        -2.786806        -0.674961        -0.590464
 H        -4.158361        -1.336856         2.163847
 H        -3.727186        -2.434359         0.885867
 H        -2.533837        -2.927466         3.192411
 H        -0.663505        -1.417320         4.050391
 H        -1.002929         0.960486         2.897109
 H         0.108503         0.006071         1.884761
