19
Iteration:  2718charge 0 multiplicity 1
 O        -1.107785         1.251377        -0.015234
 C        -1.629164         0.363570         0.925816
 C        -2.945546         0.841367         1.300214
 C        -2.835551        -0.414322         0.509186
 C        -3.200176        -1.696479         1.295215
 C        -2.397897        -1.951741         2.588952
 O        -1.206056        -2.672629         2.344352
 C        -1.137486        -1.232860         2.733263
 C        -0.586460        -0.182795         1.812102
 H        -0.587746         0.855949        -0.715045
 H        -3.133959         0.802624         2.443049
 H        -3.171159         1.766819         0.822903
 H        -2.975222        -0.533474        -0.611084
 H        -4.203152        -1.723232         1.680475
 H        -3.116578        -2.670043         0.727735
 H        -2.826234        -2.268013         3.578766
 H        -0.811529        -1.148488         3.808855
 H        -0.326450         0.687659         2.436739
 H         0.352118        -0.651860         1.408965
