19
Iteration:  2242charge 0 multiplicity 1
 O        -0.953323         0.937231        -0.215651
 C        -1.597127         0.333142         1.067589
 C        -3.004884         0.917737         1.122637
 C        -2.849643        -0.494882         0.645730
 C        -3.302732        -1.509821         1.599424
 C        -2.318741        -2.149922         2.503564
 O        -1.173027        -2.412175         1.818049
 C        -1.135112        -1.381257         2.830175
 C        -0.762379         0.058677         2.225584
 H        -0.012420         0.839650        -0.099907
 H        -3.447102         1.159763         2.126048
 H        -3.198504         1.799511         0.599329
 H        -2.961015        -0.705659        -0.366864
 H        -4.023612        -1.156596         2.398826
 H        -3.858108        -2.293608         0.966861
 H        -2.645937        -3.166648         3.081104
 H        -0.472759        -1.517975         3.657075
 H        -0.511728         0.732206         3.073513
 H         0.195200        -0.279696         1.791036
