19
Iteration:   596
 O        -0.884699         0.824424        -0.153967
 C        -1.729641         0.435933         0.990362
 C        -3.212687         0.803970         1.019780
 C        -2.761577        -0.572393         0.549520
 C        -3.200042        -1.754275         1.428533
 C        -2.291810        -2.075830         2.591437
 O        -1.055644        -2.407760         2.071531
 C        -1.135503        -1.140372         2.890149
 C        -0.842723         0.197678         2.164124
 H        -0.221223         1.417093         0.189115
 H        -3.792902         0.790817         1.960368
 H        -3.442321         1.515444         0.228972
 H        -2.548988        -0.770655        -0.489489
 H        -4.241506        -1.580803         1.644069
 H        -3.131461        -2.616638         0.773843
 H        -2.596625        -2.786035         3.316610
 H        -0.713289        -1.374194         3.888403
 H        -1.017367         0.964839         3.003686
 H         0.240468         0.129342         2.007990
