19
Iteration:  2751charge 0 multiplicity 1
 O        -1.046677         1.284576        -0.071990
 C        -1.637030         0.471472         0.967288
 C        -3.156082         0.889908         1.191425
 C        -2.887825        -0.351061         0.485242
 C        -3.221782        -1.675743         1.378794
 C        -2.307257        -2.003691         2.547081
 O        -1.132687        -2.719476         2.326900
 C        -1.116028        -1.275750         2.896865
 C        -0.561111        -0.317494         1.863490
 H        -0.339862         0.804527        -0.620044
 H        -3.413152         1.031985         2.317017
 H        -3.379118         1.713983         0.511208
 H        -2.999495        -0.608104        -0.619212
 H        -4.073787        -1.405481         1.894269
 H        -3.166772        -2.485229         0.634092
 H        -3.038359        -2.399366         3.315579
 H        -0.798404        -1.256468         3.982627
 H        -0.021457         0.533221         2.314502
 H         0.140909        -0.724401         1.057862
