19
Iteration:  4656charge 0 multiplicity 1
 O        -0.894710         0.918011        -0.057348
 C        -1.724088         0.381293         0.908842
 C        -3.005393         0.880196         1.327524
 C        -2.929045        -0.449539         0.577782
 C        -3.302772        -1.671508         1.361035
 C        -2.298456        -2.094391         2.397875
 O        -0.982103        -2.499374         2.130915
 C        -1.244834        -1.129553         2.897986
 C        -0.686423        -0.088873         1.962732
 H        -0.846210         1.877216         0.018312
 H        -3.246205         0.856782         2.380108
 H        -3.339676         1.674619         0.693833
 H        -3.278686        -0.378782        -0.421537
 H        -4.227918        -1.652253         1.937429
 H        -3.525511        -2.454837         0.599007
 H        -2.808657        -2.754245         3.148189
 H        -0.753298        -1.128610         3.877594
 H        -0.545726         0.862196         2.608766
 H         0.301155        -0.444804         1.590318
