19
Iteration:  2321charge 0 multiplicity 1
 O        -0.848757         0.689869        -0.184028
 C        -1.617550         0.420503         1.041479
 C        -3.006326         1.039563         1.248053
 C        -2.910309        -0.326600         0.760903
 C        -3.340616        -1.619956         1.471002
 C        -2.332425        -2.140015         2.489532
 O        -0.978493        -2.414781         1.875289
 C        -1.144331        -1.379508         2.773081
 C        -0.851072         0.036431         2.178961
 H        -1.406728         0.929643        -0.907770
 H        -3.272309         1.453770         2.242608
 H        -3.210672         1.843495         0.436088
 H        -3.155150        -0.493078        -0.347761
 H        -4.292511        -1.511079         2.033559
 H        -3.472953        -2.410871         0.634316
 H        -2.718947        -2.919305         3.258781
 H        -0.605075        -1.534729         3.739743
 H        -0.989933         0.811402         3.004943
 H         0.205224         0.150147         2.099600
