19
Iteration:   879
 O        -0.936835         0.843437        -0.198865
 C        -1.664528         0.397324         1.009978
 C        -3.059200         0.949096         1.093395
 C        -2.840357        -0.441510         0.601527
 C        -3.300819        -1.785248         1.429909
 C        -2.354863        -2.188311         2.394024
 O        -0.876412        -2.408832         2.250531
 C        -1.258879        -1.255750         2.838365
 C        -0.748073         0.105105         2.118145
 H        -1.192629         1.749312        -0.360571
 H        -3.288019         1.114719         2.195634
 H        -3.442064         1.770316         0.487200
 H        -2.660549        -0.640923        -0.450415
 H        -4.289361        -1.536645         1.942060
 H        -3.621722        -2.560953         0.733257
 H        -2.754943        -2.827624         3.214757
 H        -1.153571        -1.125149         3.835782
 H        -0.688124         0.893524         2.888914
 H         0.236706        -0.073666         1.678579
