19
Iteration:   436
 O        -1.029441         1.205268        -0.274260
 C        -1.649639         0.355761         0.773217
 C        -3.027024         0.812394         1.189123
 C        -2.745474        -0.533655         0.495694
 C        -3.064689        -1.878388         1.257332
 C        -2.416922        -2.087850         2.595819
 O        -0.990710        -2.466267         2.580461
 C        -1.331154        -1.182633         2.882067
 C        -0.742610        -0.063289         1.977765
 H        -1.370998         2.049118         0.040946
 H        -3.297391         0.735792         2.284545
 H        -3.589642         1.387998         0.514832
 H        -3.062761        -0.538106        -0.485739
 H        -4.098887        -1.662245         1.471607
 H        -2.840935        -2.731739         0.573846
 H        -2.967301        -2.523009         3.506499
 H        -1.061313        -0.835085         3.921313
 H        -0.408223         0.775723         2.566970
 H         0.157895        -0.457000         1.475606
