19
Iteration:  2274charge 0 multiplicity 1
 O        -0.871497         0.881254        -0.122254
 C        -1.675101         0.377009         1.030267
 C        -3.002508         1.072631         1.130185
 C        -3.003725        -0.387304         0.711689
 C        -3.409217        -1.602556         1.541546
 C        -2.312547        -2.085120         2.441078
 O        -1.004197        -2.523337         1.946249
 C        -1.012181        -1.356313         2.683329
 C        -0.791572        -0.035666         2.204413
 H        -0.312824         0.198469        -0.560703
 H        -3.267362         1.224221         2.188451
 H        -3.230081         1.894875         0.472310
 H        -3.097785        -0.629242        -0.309896
 H        -4.267152        -1.393396         2.260285
 H        -3.785439        -2.350102         0.786006
 H        -2.771776        -2.891467         3.133181
 H        -0.654319        -1.427042         3.707668
 H        -0.965325         0.653279         3.022280
 H         0.252310         0.293871         2.015123
