19
Iteration:  1544charge 0 multiplicity 1
 O        -0.848902         1.042106        -0.071047
 C        -1.637467         0.313962         0.890068
 C        -3.096321         0.828048         1.193070
 C        -2.854316        -0.445131         0.546957
 C        -3.226059        -1.745491         1.377542
 C        -2.384831        -1.983782         2.577246
 O        -1.108354        -2.434809         2.101545
 C        -1.091743        -1.263503         2.913794
 C        -0.746864         0.014100         2.072748
 H        -1.108472         0.691777        -0.970315
 H        -3.533217         0.920986         2.211601
 H        -3.498757         1.588780         0.558972
 H        -3.008641        -0.531999        -0.545787
 H        -4.379572        -1.886702         1.508698
 H        -3.050413        -2.677943         0.822291
 H        -2.735261        -2.635473         3.332427
 H        -0.904089        -1.498672         4.000737
 H        -0.931838         0.848710         2.788070
 H         0.328362        -0.052981         1.768759
