19
Iteration:  4865charge 0 multiplicity 1
 O        -1.056985         0.911701        -0.218468
 C        -1.629912         0.445347         1.021349
 C        -3.002973         0.921049         1.259832
 C        -2.753337        -0.497532         0.620501
 C        -3.312578        -1.604148         1.436832
 C        -2.345372        -2.175214         2.461972
 O        -0.987267        -2.417507         2.008551
 C        -1.207186        -1.312655         2.936729
 C        -0.677162        -0.062725         2.084351
 H        -0.896566         1.898949        -0.118718
 H        -3.491108         0.791896         2.213373
 H        -3.436957         1.758605         0.661069
 H        -2.965621        -0.411737        -0.491477
 H        -4.342154        -1.173177         1.735776
 H        -3.602222        -2.474600         0.761314
 H        -2.809866        -2.820427         3.194963
 H        -0.866224        -1.405832         3.955314
 H        -0.600885         0.834267         2.694868
 H         0.270794        -0.387506         1.704434
