19
Iteration:   546
 O        -0.998687         1.019673        -0.179139
 C        -1.660592         0.316015         0.822400
 C        -3.088803         0.867313         1.094820
 C        -2.894116        -0.528211         0.457069
 C        -3.135762        -1.760940         1.344744
 C        -2.248702        -2.158511         2.486720
 O        -0.897051        -2.431591         2.339547
 C        -1.237993        -1.142628         2.978457
 C        -0.916129         0.114953         2.149782
 H        -0.158337         0.572741        -0.439188
 H        -3.254538         0.816660         2.159682
 H        -3.429828         1.786953         0.464198
 H        -3.150464        -0.582810        -0.586935
 H        -4.120677        -1.464689         1.832462
 H        -3.452173        -2.610011         0.652800
 H        -2.805172        -2.718058         3.335012
 H        -0.908167        -1.283750         4.048782
 H        -0.891911         0.916972         2.864741
 H         0.094688        -0.240822         1.911044
