19
Iteration:  3571
 O        -1.066873         1.206537        -0.133134
 C        -1.632680         0.382281         0.943839
 C        -3.050192         0.879242         1.319246
 C        -2.893853        -0.401774         0.452659
 C        -3.222470        -1.774474         1.286600
 C        -2.402040        -1.980711         2.600340
 O        -1.159349        -2.584069         2.315763
 C        -1.116055        -1.276526         2.855399
 C        -0.521927        -0.177877         1.896970
 H        -0.311482         1.731669         0.231460
 H        -3.348706         0.634125         2.319993
 H        -3.594464         1.623848         0.751531
 H        -3.043636        -0.409238        -0.703558
 H        -4.300359        -1.758398         1.263925
 H        -2.930702        -2.716582         0.781364
 H        -2.898503        -2.448906         3.451357
 H        -0.571431        -1.225062         3.744268
 H        -0.030733         0.727473         2.479945
 H         0.113536        -0.822465         1.318643
