19
Iteration:  4049
 O        -0.874075         0.815709        -0.102306
 C        -1.658499         0.348288         0.968043
 C        -3.105174         0.975746         1.188715
 C        -2.862021        -0.465820         0.602752
 C        -3.356764        -1.648599         1.465874
 C        -2.343616        -2.000314         2.527274
 O        -1.030090        -2.459797         1.962046
 C        -1.094685        -1.348439         2.735234
 C        -0.771159         0.059405         2.197155
 H        -0.653450         1.734737         0.234672
 H        -3.488801         1.064881         2.226211
 H        -3.428680         1.667241         0.435852
 H        -3.048905        -0.400945        -0.412601
 H        -4.280847        -1.462060         1.987642
 H        -3.346043        -2.643667         0.877685
 H        -2.616212        -2.845516         3.210623
 H        -0.501656        -1.427711         3.627654
 H        -0.623905         0.784496         2.984628
 H         0.162725        -0.122426         1.659654
