19
Iteration:  1277charge 0 multiplicity 1
 O        -0.863246         0.989932        -0.089611
 C        -1.647534         0.353338         0.894450
 C        -3.103121         0.927435         1.005930
 C        -2.948338        -0.502328         0.550855
 C        -3.323570        -1.724303         1.396502
 C        -2.297315        -2.055873         2.461727
 O        -0.880838        -2.549487         2.250540
 C        -1.154323        -1.247909         2.912264
 C        -0.828593         0.023369         2.100502
 H        -1.028315         1.924320        -0.169551
 H        -3.453609         0.999999         2.060178
 H        -3.418741         1.650533         0.294855
 H        -3.040982        -0.630942        -0.530220
 H        -4.208251        -1.713717         2.083964
 H        -3.672797        -2.549654         0.797608
 H        -2.630278        -2.498452         3.438622
 H        -0.981585        -1.331104         3.957605
 H        -0.790644         0.902840         2.793683
 H         0.179627        -0.000464         1.647750
