19
Iteration:  4037
 O        -0.890730         0.906392        -0.126752
 C        -1.646572         0.339072         0.964775
 C        -3.010329         0.938292         1.164536
 C        -2.933017        -0.464516         0.686884
 C        -3.353310        -1.674300         1.467236
 C        -2.337373        -2.131514         2.458242
 O        -1.019346        -2.460570         1.928939
 C        -1.092877        -1.262066         2.895481
 C        -0.757693         0.030976         2.109061
 H        -0.358868         1.639898         0.181740
 H        -3.499547         1.143508         2.124637
 H        -3.238270         1.678392         0.468880
 H        -3.138825        -0.709854        -0.317183
 H        -4.226049        -1.366083         2.019087
 H        -3.836204        -2.452493         0.802273
 H        -2.832348        -2.719123         3.263722
 H        -0.725839        -1.487025         3.880000
 H        -0.894204         0.889221         2.721440
 H         0.294340         0.025150         1.872086
