19
Iteration:  4422charge 0 multiplicity 1
 O        -1.118999         1.140371        -0.155781
 C        -1.604838         0.399455         0.922543
 C        -3.007682         0.780246         1.503599
 C        -2.818232        -0.360681         0.531457
 C        -3.221067        -1.741080         1.133916
 C        -2.430235        -1.993363         2.476663
 O        -1.090751        -2.524986         2.491870
 C        -1.165159        -1.197595         2.812432
 C        -0.537828        -0.286491         1.778620
 H        -0.443187         1.831378         0.108697
 H        -3.484646         0.424725         2.390671
 H        -3.522479         1.719956         1.139065
 H        -3.295464         0.007176        -0.343970
 H        -4.293126        -1.840211         1.150787
 H        -2.898275        -2.562576         0.469988
 H        -2.933758        -2.305555         3.417392
 H        -1.153033        -0.934647         3.818389
 H         0.000937         0.591953         2.223618
 H         0.199536        -0.891404         1.161803
