19
Iteration:  3807charge 0 multiplicity 1
 O        -1.042213         0.940674        -0.232718
 C        -1.617634         0.399178         0.961657
 C        -2.939137         0.972646         1.441178
 C        -2.897368        -0.356374         0.624254
 C        -3.225669        -1.751046         1.175312
 C        -2.396131        -2.045920         2.475751
 O        -0.967508        -2.458638         2.271827
 C        -1.269043        -1.243549         2.882266
 C        -0.669825        -0.180511         1.964462
 H        -0.975415         1.863478         0.007596
 H        -3.397883         0.822486         2.373588
 H        -3.461664         1.728861         0.966559
 H        -2.936421        -0.262248        -0.508281
 H        -4.264046        -1.941945         1.399461
 H        -3.041681        -2.515432         0.386086
 H        -2.838473        -2.631495         3.273471
 H        -1.252804        -1.231125         3.945457
 H        -0.290177         0.699253         2.612499
 H         0.197835        -0.685276         1.436934
