19
Iteration:  3440
 O        -0.944920         0.919137        -0.172775
 C        -1.642828         0.360962         0.980726
 C        -3.008740         1.029398         1.227862
 C        -2.920113        -0.388073         0.591621
 C        -3.307104        -1.639247         1.429094
 C        -2.419143        -2.034924         2.501237
 O        -0.945860        -2.587125         2.142325
 C        -1.050063        -1.369555         2.789965
 C        -0.830346        -0.048170         2.073980
 H        -0.723237         1.829269         0.184521
 H        -3.474844         1.190450         2.183742
 H        -3.301552         1.791535         0.517962
 H        -3.054098        -0.489365        -0.580583
 H        -4.360417        -1.467005         1.817378
 H        -3.424878        -2.457865         0.540439
 H        -2.685070        -2.920388         3.139508
 H        -0.589931        -1.347206         3.748582
 H        -0.776146         0.716631         2.889917
 H         0.190104         0.000004         1.726638
