19
Iteration:  1301
 O        -0.778832         0.802539        -0.054683
 C        -1.694814         0.402681         0.953823
 C        -3.176165         0.930757         1.117182
 C        -2.869642        -0.500873         0.559409
 C        -3.225066        -1.696306         1.392316
 C        -2.326106        -2.175112         2.548939
 O        -0.943671        -2.321658         2.078631
 C        -1.220719        -1.203427         2.918932
 C        -0.843952         0.047633         2.093715
 H        -1.030608         1.524792        -0.630551
 H        -3.616809         1.024046         2.106766
 H        -3.512966         1.566176         0.302803
 H        -3.112100        -0.580910        -0.479278
 H        -4.216828        -1.658699         1.821613
 H        -3.424930        -2.585750         0.793897
 H        -2.567503        -2.979726         3.252609
 H        -0.751285        -1.391324         3.919924
 H        -0.659868         0.968817         2.750639
 H         0.144254        -0.152767         1.587370
