19
Iteration:   912charge 0 multiplicity 1
 O        -0.890798         1.040506        -0.200847
 C        -1.666508         0.320698         0.824167
 C        -3.069184         0.807544         1.205522
 C        -2.857385        -0.556889         0.505972
 C        -3.185792        -1.782147         1.342758
 C        -2.389064        -1.989474         2.579509
 O        -1.078345        -2.434584         2.208104
 C        -1.103623        -1.218221         2.971536
 C        -0.769345        -0.011032         2.111170
 H        -1.406937         1.839467        -0.267201
 H        -3.141231         0.723280         2.325874
 H        -3.548836         1.723659         0.748484
 H        -2.885787        -0.416215        -0.583372
 H        -4.282614        -1.603259         1.631418
 H        -2.998088        -2.761743         0.895996
 H        -3.032376        -2.552048         3.294092
 H        -0.879038        -1.324551         3.972204
 H        -0.631074         0.993070         2.573054
 H         0.212095        -0.073047         1.620727
