19
Iteration:  3835
 O        -1.088057         1.025867        -0.225433
 C        -1.623501         0.338653         0.900832
 C        -2.942996         0.857401         1.375941
 C        -2.882065        -0.390456         0.532719
 C        -3.248669        -1.647061         1.257644
 C        -2.336170        -2.030605         2.454614
 O        -1.067384        -2.585760         2.260035
 C        -1.144510        -1.282326         2.884628
 C        -0.689928        -0.015933         2.048039
 H        -0.325921         1.464674         0.193337
 H        -3.076852         0.698054         2.539156
 H        -3.529101         1.691518         0.871977
 H        -2.913364        -0.317755        -0.509443
 H        -4.292550        -1.598143         1.712647
 H        -3.256072        -2.473346         0.504549
 H        -2.910125        -2.628387         3.190985
 H        -1.076997        -1.310245         4.017396
 H        -0.564911         0.818357         2.693611
 H         0.246958        -0.252649         1.590357
