19
Iteration:  2324
 O        -0.859779         0.689494        -0.186874
 C        -1.616219         0.420000         1.053751
 C        -2.982832         1.048205         1.237207
 C        -2.901004        -0.347733         0.751009
 C        -3.376465        -1.634170         1.466287
 C        -2.354399        -2.158564         2.496664
 O        -0.973868        -2.426218         1.849369
 C        -1.129112        -1.324600         2.788467
 C        -0.823974         0.035579         2.222760
 H        -1.390294         1.037960        -0.954425
 H        -3.295575         1.359456         2.263238
 H        -3.217963         1.696860         0.390812
 H        -3.246029        -0.428604        -0.300837
 H        -4.300773        -1.568191         2.016759
 H        -3.512506        -2.325633         0.658754
 H        -2.676684        -2.862073         3.181498
 H        -0.670285        -1.540371         3.791355
 H        -0.995377         0.905543         2.949421
 H         0.266071         0.133052         2.021000
