19
Iteration:   538charge 0 multiplicity 1
 O        -0.997225         1.037706        -0.187390
 C        -1.718713         0.407730         0.829853
 C        -3.027790         0.887569         1.125689
 C        -2.806411        -0.538681         0.478550
 C        -3.155202        -1.773231         1.336093
 C        -2.286472        -2.074857         2.496035
 O        -0.864535        -2.490423         2.367458
 C        -1.256050        -1.204782         2.933414
 C        -0.915384         0.072528         2.141460
 H        -0.473631         0.255899        -0.539973
 H        -3.325042         1.031997         2.162291
 H        -3.716319         1.472668         0.477286
 H        -3.183804        -0.680955        -0.571329
 H        -4.150741        -1.591986         1.702026
 H        -3.301108        -2.631804         0.689319
 H        -2.715269        -2.710242         3.320409
 H        -1.074247        -1.043570         3.960616
 H        -1.009131         0.951130         2.741126
 H         0.141837        -0.026015         1.904132
