19
Iteration:  1989charge 0 multiplicity 1
 O        -1.052127         0.927448        -0.258684
 C        -1.664283         0.287096         0.902951
 C        -2.915271         0.982108         1.416455
 C        -2.944893        -0.305971         0.603187
 C        -3.202860        -1.657657         1.284407
 C        -2.418241        -2.021793         2.505711
 O        -1.023526        -2.555701         2.151688
 C        -1.153108        -1.331299         2.830133
 C        -0.730458        -0.012424         2.123087
 H        -0.080741         0.884897        -0.480429
 H        -3.186441         0.850928         2.436494
 H        -3.249590         1.818328         0.872041
 H        -3.131630        -0.195476        -0.488457
 H        -4.233497        -1.714247         1.624544
 H        -3.210788        -2.550624         0.593549
 H        -2.941348        -2.517791         3.400115
 H        -0.722449        -1.343980         3.847599
 H        -0.614287         0.835994         2.862757
 H         0.327098        -0.206212         1.863572
