19
Iteration:   799charge 0 multiplicity 1
 O        -0.874903         0.792468        -0.217529
 C        -1.662263         0.366619         0.989135
 C        -3.143177         0.861013         1.045382
 C        -2.746401        -0.541379         0.624948
 C        -3.301256        -1.676359         1.503414
 C        -2.331130        -2.103820         2.561259
 O        -0.957032        -2.355638         1.898276
 C        -1.188950        -1.197288         2.893524
 C        -0.906106         0.179203         2.266382
 H        -0.042550         0.932071         0.217393
 H        -3.517540         0.734606         2.003370
 H        -3.537466         1.670783         0.401039
 H        -2.743517        -0.864587        -0.427951
 H        -4.274664        -1.259343         1.796640
 H        -3.515640        -2.624798         0.933731
 H        -2.587605        -2.875566         3.330630
 H        -0.643355        -1.344095         3.764470
 H        -1.279566         0.904358         3.077863
 H         0.210630         0.175745         2.204771
