19
Iteration:  4847charge 0 multiplicity 1
 O        -0.973963         0.928374        -0.166211
 C        -1.621732         0.386842         0.970863
 C        -3.102225         0.946286         1.193588
 C        -2.932761        -0.455882         0.638647
 C        -3.293408        -1.700085         1.426097
 C        -2.299419        -2.037451         2.488819
 O        -1.029940        -2.503844         2.038100
 C        -1.102734        -1.271541         2.796988
 C        -0.713021        -0.026563         2.168666
 H        -0.539493         1.762277         0.185531
 H        -3.359796         1.185988         2.309670
 H        -3.403272         1.717087         0.509754
 H        -2.994095        -0.462390        -0.437658
 H        -4.217040        -1.761267         1.938137
 H        -3.598679        -2.383398         0.641497
 H        -2.748924        -2.731786         3.209636
 H        -0.696828        -1.525117         3.831500
 H        -0.380972         0.762136         2.921331
 H         0.187716        -0.366371         1.546192
