19
Iteration:  2436
 O        -0.870253         1.011731        -0.123198
 C        -1.673108         0.375215         0.942035
 C        -2.978798         0.934688         1.243593
 C        -2.943752        -0.428119         0.539427
 C        -3.302836        -1.628743         1.495304
 C        -2.319503        -2.120327         2.517000
 O        -1.069769        -2.485707         2.011320
 C        -1.101488        -1.300376         2.816773
 C        -0.772806        -0.067033         2.170190
 H        -0.865985         0.360760        -0.812757
 H        -3.635585         1.054002         2.070931
 H        -3.308944         1.739707         0.571537
 H        -3.297655        -0.357265        -0.504905
 H        -4.216536        -1.484889         2.079572
 H        -3.424562        -2.479899         0.865199
 H        -2.673136        -2.784731         3.276301
 H        -0.510369        -1.322260         3.774111
 H        -0.827839         0.869297         2.838570
 H         0.316851        -0.099422         1.754943
