19
Iteration:  2955
 O        -0.876330         0.957931        -0.089901
 C        -1.660449         0.396891         0.958797
 C        -3.029845         1.023234         1.253371
 C        -2.986340        -0.470958         0.608655
 C        -3.314532        -1.647618         1.439879
 C        -2.341748        -2.125609         2.496335
 O        -0.997939        -2.536056         2.033124
 C        -1.106558        -1.260920         2.772635
 C        -0.764903        -0.013510         2.087998
 H        -0.653412         0.238175        -0.761181
 H        -3.217468         1.129940         2.283624
 H        -3.106135         2.068292         0.794634
 H        -3.263746        -0.288692        -0.431127
 H        -4.230863        -1.448796         1.882151
 H        -3.536898        -2.545006         0.808673
 H        -2.830180        -2.768834         3.380081
 H        -0.811998        -1.595940         3.729768
 H        -0.745026         0.738490         2.905674
 H         0.243843        -0.002135         1.717438
