19
Iteration:  4221charge 0 multiplicity 1
 O        -0.892401         1.013267        -0.165315
 C        -1.711120         0.354786         0.936427
 C        -3.004523         0.961483         1.343046
 C        -2.934899        -0.456410         0.603027
 C        -3.282206        -1.682199         1.365816
 C        -2.359197        -2.135075         2.358297
 O        -0.953404        -2.538035         2.263395
 C        -1.194058        -1.211863         2.825513
 C        -0.702833        -0.139370         1.996760
 H        -1.190078         1.916301        -0.114624
 H        -3.248942         1.049919         2.361750
 H        -3.430356         1.808807         0.737933
 H        -3.215593        -0.551659        -0.411188
 H        -4.235432        -1.490266         1.935685
 H        -3.381147        -2.399143         0.601717
 H        -2.886857        -2.495748         3.227911
 H        -1.084753        -1.126010         3.935075
 H        -0.271374         0.821286         2.463167
 H         0.155660        -0.350711         1.363764
