19
Iteration:   154
 O        -1.004898         0.966639        -0.300821
 C        -1.641869         0.363280         0.871791
 C        -3.142108         0.834551         1.056400
 C        -2.793113        -0.521346         0.517948
 C        -3.130842        -1.789036         1.304805
 C        -2.332071        -2.164183         2.505919
 O        -0.883741        -2.436138         2.386595
 C        -1.311860        -1.147819         2.973711
 C        -0.874834         0.128753         2.198292
 H        -0.189316         1.414310        -0.061824
 H        -3.440873         1.018235         2.090120
 H        -3.434143         1.595883         0.293640
 H        -2.783323        -0.600678        -0.511517
 H        -4.143276        -1.656442         1.815530
 H        -3.102980        -2.656944         0.637898
 H        -2.842299        -2.786923         3.270588
 H        -0.942195        -1.083779         4.013127
 H        -0.875661         1.052857         2.835512
 H         0.096266        -0.144149         1.913690
