19
Iteration:   795
 O        -0.890368         0.798519        -0.207072
 C        -1.666651         0.333760         0.988907
 C        -3.139778         0.891675         1.037395
 C        -2.714463        -0.541622         0.579848
 C        -3.346976        -1.652064         1.495761
 C        -2.291588        -2.127619         2.583946
 O        -0.941249        -2.318778         1.903326
 C        -1.196809        -1.213705         2.912060
 C        -0.937687         0.129539         2.255794
 H        -0.003383         0.941807         0.222129
 H        -3.636393         0.775752         2.047794
 H        -3.506398         1.662700         0.377445
 H        -2.719466        -0.827559        -0.466929
 H        -4.287859        -1.259637         1.860580
 H        -3.551758        -2.568827         0.941263
 H        -2.500571        -2.815087         3.394051
 H        -0.566674        -1.436884         3.920054
 H        -1.167826         0.910239         3.021897
 H         0.178806         0.196148         2.098999
