19
Iteration:  2444
 O        -0.844932         0.970458        -0.096953
 C        -1.670628         0.309846         0.906299
 C        -3.024360         0.940438         1.279237
 C        -2.923406        -0.426994         0.593790
 C        -3.359814        -1.646571         1.467711
 C        -2.351035        -2.112707         2.480472
 O        -1.016675        -2.445630         2.011375
 C        -1.143753        -1.257465         2.831418
 C        -0.739682         0.018441         2.106976
 H        -1.059400         0.342441        -0.781532
 H        -3.414266         0.757489         2.322342
 H        -3.279733         1.739346         0.632834
 H        -3.159538        -0.309156        -0.433985
 H        -4.329240        -1.413206         1.933782
 H        -3.444639        -2.539632         0.827594
 H        -2.685080        -2.746886         3.225811
 H        -0.558559        -1.573832         3.712839
 H        -0.592773         0.817617         2.816405
 H         0.269285        -0.271053         1.936062
