19
Iteration:  1613charge 0 multiplicity 1
 O        -0.959473         1.064670        -0.208522
 C        -1.681674         0.398229         0.903813
 C        -2.995782         0.891434         1.258725
 C        -2.909397        -0.418917         0.526403
 C        -3.247762        -1.679846         1.277909
 C        -2.370941        -2.057705         2.510961
 O        -0.956809        -2.583433         2.310463
 C        -1.209629        -1.212291         2.983262
 C        -0.764714        -0.135886         1.964018
 H        -0.321980         1.697441         0.172518
 H        -3.331487         0.708094         2.274397
 H        -3.407272         1.761685         0.691193
 H        -3.023298        -0.461288        -0.543467
 H        -4.288920        -1.816302         1.658336
 H        -3.291730        -2.525059         0.556357
 H        -2.794860        -2.665782         3.250264
 H        -1.068410        -0.993700         4.031444
 H        -0.424649         0.826875         2.481491
 H         0.175953        -0.560630         1.512593
