19
Iteration:  3359
 O        -0.931152         0.728663        -0.154852
 C        -1.686072         0.318784         1.014783
 C        -3.026117         0.953700         1.151241
 C        -2.867519        -0.370650         0.611215
 C        -3.337595        -1.563500         1.458782
 C        -2.255216        -2.128760         2.458799
 O        -1.037900        -2.417496         1.898985
 C        -1.058506        -1.325923         2.836412
 C        -0.797890         0.041349         2.298572
 H        -0.709994         1.654305         0.105393
 H        -3.445036         1.224387         2.140382
 H        -3.402144         1.699882         0.332386
 H        -3.234238        -0.585657        -0.360445
 H        -4.288685        -1.469691         1.980125
 H        -3.458405        -2.294156         0.602316
 H        -2.628512        -2.650707         3.380566
 H        -0.770659        -1.578403         3.944215
 H        -0.971080         0.882386         3.067194
 H         0.170597         0.120519         1.750010
