19
Iteration:  4112
 O        -0.883924         0.937716        -0.205345
 C        -1.637490         0.333523         0.905904
 C        -2.948777         1.055738         1.218353
 C        -2.925250        -0.393667         0.623776
 C        -3.327355        -1.718252         1.515219
 C        -2.340414        -2.200140         2.445463
 O        -0.925741        -2.470751         2.083539
 C        -1.195009        -1.291000         2.847272
 C        -0.861371        -0.029445         2.114488
 H        -0.885314         1.930261        -0.048378
 H        -3.273753         1.134619         2.259749
 H        -3.216398         1.825802         0.570215
 H        -3.145922        -0.476136        -0.425285
 H        -4.277207        -1.552211         2.086702
 H        -3.686531        -2.517683         0.884275
 H        -2.765431        -3.090871         2.892709
 H        -0.812599        -1.360737         3.911106
 H        -0.927255         0.881791         2.777695
 H         0.185888        -0.240201         1.803957
