19
Iteration:  1908charge 0 multiplicity 1
 O        -0.938705         1.071544        -0.064039
 C        -1.615393         0.356843         0.900413
 C        -3.047079         0.788231         1.348002
 C        -2.903100        -0.425912         0.565473
 C        -3.311228        -1.725971         1.274364
 C        -2.365847        -1.942384         2.503413
 O        -1.127348        -2.602639         2.294663
 C        -1.125989        -1.204690         2.803262
 C        -0.593891        -0.145260         1.871929
 H        -1.144583         2.056876        -0.023791
 H        -3.188984         0.930279         2.431087
 H        -3.213654         1.740773         0.657590
 H        -3.324091        -0.307535        -0.467106
 H        -4.294384        -1.450108         1.686919
 H        -3.205513        -2.565626         0.655765
 H        -2.842022        -2.255463         3.418896
 H        -0.646445        -0.961158         3.776122
 H        -0.326283         0.636157         2.511299
 H         0.196449        -0.654252         1.281260
