19
Iteration:  4433
 O        -1.015940         1.150554        -0.148609
 C        -1.697985         0.376415         0.923009
 C        -3.012152         0.793977         1.505144
 C        -2.974643        -0.384914         0.526005
 C        -3.153058        -1.756210         1.139743
 C        -2.397078        -1.927748         2.466611
 O        -1.050549        -2.570761         2.459858
 C        -1.231424        -1.143293         2.837680
 C        -0.567770        -0.232356         1.762127
 H        -0.369654         1.560109         0.423569
 H        -3.162816         0.474015         2.536953
 H        -3.349273         1.817340         1.216657
 H        -3.167313        -0.422728        -0.522213
 H        -4.181078        -1.812820         1.482057
 H        -2.955510        -2.558598         0.412579
 H        -3.034703        -2.466956         3.192405
 H        -1.083443        -0.882144         3.835797
 H         0.227561         0.367913         2.267811
 H        -0.053359        -0.964417         1.072134
