19
Iteration:  3534
 O        -1.018749         1.083101        -0.169601
 C        -1.661415         0.433591         0.938294
 C        -3.094353         0.972816         1.259706
 C        -2.851890        -0.391277         0.526250
 C        -3.250971        -1.659440         1.262782
 C        -2.376596        -2.038323         2.534794
 O        -1.045973        -2.684347         2.352325
 C        -1.095167        -1.290708         2.770612
 C        -0.592743        -0.175658         2.005960
 H        -1.009619         2.024559         0.044505
 H        -3.468230         0.851126         2.305554
 H        -3.684507         1.728780         0.747859
 H        -3.163420        -0.282255        -0.535897
 H        -4.332362        -1.547706         1.706223
 H        -3.212382        -2.576021         0.666865
 H        -2.908313        -2.563953         3.353309
 H        -0.842819        -1.252163         3.891629
 H        -0.176571         0.558486         2.730202
 H         0.318191        -0.446507         1.402283
