19
Iteration:  1580charge 0 multiplicity 1
 O        -1.062486         1.132239        -0.098788
 C        -1.642153         0.410085         0.952152
 C        -3.055509         0.892816         1.137119
 C        -2.800337        -0.470319         0.526231
 C        -3.267151        -1.692567         1.360159
 C        -2.353128        -2.081802         2.552185
 O        -1.045300        -2.616725         2.281222
 C        -1.172908        -1.246263         2.841622
 C        -0.662542        -0.068156         2.013484
 H        -0.152289         0.736163        -0.341342
 H        -3.598218         0.827509         2.028092
 H        -3.375274         1.751716         0.401087
 H        -2.697473        -0.546336        -0.534419
 H        -4.222694        -1.423023         1.872780
 H        -3.339414        -2.468978         0.506286
 H        -2.854012        -2.632355         3.350358
 H        -1.007047        -1.108095         3.899967
 H        -0.599326         0.954149         2.515709
 H         0.413844        -0.172278         1.611055
