19
Iteration:  1650
 O        -0.955795         0.924678        -0.201408
 C        -1.646019         0.431046         0.950024
 C        -2.949022         0.897981         1.387304
 C        -2.938583        -0.443640         0.662195
 C        -3.173994        -1.845397         1.113183
 C        -2.372398        -1.906233         2.490328
 O        -1.104061        -2.572414         2.313864
 C        -1.220504        -1.185881         2.898728
 C        -0.644607        -0.039867         1.962330
 H        -1.354952         1.818869        -0.411183
 H        -3.297682         0.883695         2.489067
 H        -3.566899         1.647429         0.889251
 H        -3.060824        -0.322384        -0.443508
 H        -4.260779        -1.990312         1.111280
 H        -2.534302        -2.529555         0.434157
 H        -3.167031        -2.310737         3.336685
 H        -0.962253        -1.181231         3.978027
 H        -0.355138         0.785278         2.702168
 H         0.264634        -0.248046         1.367560
