19
Iteration:  4638charge 0 multiplicity 1
 O        -0.774144         1.018474        -0.172668
 C        -1.625497         0.299341         0.853897
 C        -3.009158         0.871145         1.385139
 C        -3.000386        -0.422669         0.617226
 C        -3.339118        -1.810892         1.358190
 C        -2.407365        -2.067452         2.500062
 O        -0.973110        -2.402518         2.138674
 C        -1.216682        -1.251522         2.824387
 C        -0.762399        -0.033550         2.001299
 H        -0.695432         1.964649        -0.001141
 H        -3.095325         0.770191         2.530487
 H        -3.592089         1.719296         1.050041
 H        -3.360831        -0.371833        -0.418109
 H        -4.393214        -1.634958         1.610372
 H        -3.309150        -2.663698         0.711765
 H        -2.677972        -2.649020         3.322421
 H        -0.879643        -1.293518         3.918025
 H        -0.434203         0.707601         2.719829
 H         0.131477        -0.325271         1.427532
