19
Iteration:  2164charge 0 multiplicity 1
 O        -0.895269         0.784724        -0.205164
 C        -1.595975         0.415865         1.018160
 C        -2.961641         1.114510         1.234600
 C        -2.898169        -0.383336         0.748314
 C        -3.310639        -1.592563         1.473199
 C        -2.341536        -2.166826         2.414926
 O        -0.989310        -2.505424         1.954088
 C        -1.098459        -1.372696         2.737634
 C        -0.888666         0.080144         2.244299
 H        -1.364461         0.370555        -0.970752
 H        -3.293342         1.244860         2.235644
 H        -3.441589         1.754445         0.473075
 H        -3.178762        -0.529550        -0.320437
 H        -4.223582        -1.537944         2.151352
 H        -3.617580        -2.299587         0.641655
 H        -2.586718        -2.752448         3.380538
 H        -0.713823        -1.499947         3.745931
 H        -1.055258         0.741191         3.057570
 H         0.184573        -0.009754         1.979068
