19
Iteration:  3362charge 0 multiplicity 1
 O        -0.954814         0.739456        -0.141348
 C        -1.666700         0.294682         1.027552
 C        -3.029979         0.958537         1.142808
 C        -2.865056        -0.410555         0.595681
 C        -3.346609        -1.573288         1.484343
 C        -2.276292        -2.092662         2.416049
 O        -1.043792        -2.430322         1.906915
 C        -1.046496        -1.313795         2.859433
 C        -0.786980         0.061117         2.282344
 H        -0.640149         1.635453         0.190209
 H        -3.615482         1.150158         2.034034
 H        -3.295996         1.724794         0.459148
 H        -3.185337        -0.511393        -0.418050
 H        -4.288812        -1.342272         2.001926
 H        -3.395975        -2.305180         0.562657
 H        -2.562867        -2.604817         3.355227
 H        -0.697702        -1.646094         3.814661
 H        -0.864136         0.841417         3.073934
 H         0.148690         0.104565         1.785499
