19
Iteration:  4599
 O        -1.197509         0.941538        -0.225863
 C        -1.636937         0.448072         1.014279
 C        -2.996999         0.984507         1.264054
 C        -2.815932        -0.342184         0.555825
 C        -3.210746        -1.672114         1.228863
 C        -2.398255        -2.004863         2.511144
 O        -1.026704        -2.650365         2.262076
 C        -1.115756        -1.344540         2.820164
 C        -0.631480        -0.080784         2.124638
 H        -0.762309         1.816166        -0.003486
 H        -3.520366         0.826847         2.169544
 H        -3.303507         1.830861         0.599123
 H        -2.671416        -0.330588        -0.539590
 H        -4.242771        -1.768972         1.629204
 H        -2.997778        -2.507471         0.505664
 H        -3.087471        -2.411210         3.329608
 H        -0.609287        -1.390054         3.777085
 H        -0.505544         0.713533         2.921960
 H         0.357535        -0.210688         1.620711
