19
Iteration:  3241charge 0 multiplicity 1
 O        -0.787838         1.039030        -0.045540
 C        -1.628816         0.402336         0.908661
 C        -3.023403         0.934386         1.048409
 C        -2.871494        -0.508596         0.623686
 C        -3.347573        -1.634573         1.630308
 C        -2.367876        -2.102879         2.635202
 O        -1.060187        -2.494305         1.843745
 C        -1.092612        -1.409463         2.766599
 C        -0.818016         0.041224         2.183560
 H        -1.133065         0.812797        -0.914409
 H        -3.472546         1.014539         2.007333
 H        -3.464793         1.862884         0.651548
 H        -3.092028        -0.569343        -0.445431
 H        -4.224388        -1.323731         2.212876
 H        -3.700837        -2.553319         1.015712
 H        -2.871389        -2.799755         3.352262
 H        -0.387041        -1.469605         3.559571
 H        -1.108041         0.726354         2.977309
 H         0.235214         0.008494         2.064811
