19
Iteration:  3898
 O        -0.962598         0.967597        -0.093897
 C        -1.703957         0.364514         0.989780
 C        -3.047987         0.950212         1.169564
 C        -2.893195        -0.404726         0.503078
 C        -3.248831        -1.609331         1.425676
 C        -2.384536        -2.104936         2.517944
 O        -0.974279        -2.525007         2.112688
 C        -1.112760        -1.341742         2.827804
 C        -0.699925        -0.118889         2.074959
 H        -1.090149         1.947522        -0.085494
 H        -3.503475         1.202781         2.166567
 H        -3.327635         1.789703         0.505630
 H        -2.840433        -0.367565        -0.541452
 H        -4.231309        -1.365756         1.921109
 H        -3.616632        -2.445336         0.897790
 H        -2.694565        -2.718541         3.397252
 H        -0.953923        -1.282210         3.954584
 H        -0.449167         0.743143         2.759989
 H         0.200483        -0.324164         1.431489
