19
Iteration:  3316charge 0 multiplicity 1
 O        -0.801236         0.716005        -0.107889
 C        -1.683645         0.377676         0.910617
 C        -2.982299         1.085451         1.174913
 C        -3.057686        -0.388595         0.734074
 C        -3.308190        -1.639580         1.463794
 C        -2.258212        -2.233895         2.433378
 O        -0.927076        -2.489653         1.945120
 C        -1.152302        -1.301300         2.788336
 C        -0.875248         0.105170         2.217900
 H        -1.116968         1.509131        -0.613918
 H        -3.090569         1.622100         2.128567
 H        -3.559515         1.769148         0.438421
 H        -3.220307        -0.265851        -0.343983
 H        -4.147993        -1.310871         2.067068
 H        -3.626771        -2.461410         0.718367
 H        -2.582224        -2.988168         3.201402
 H        -0.753680        -1.433346         3.850181
 H        -1.227613         0.744158         3.096143
 H         0.205890         0.211859         2.194682
