19
Iteration:  2870charge 0 multiplicity 1
 O        -0.899720         1.068263        -0.074200
 C        -1.731138         0.361457         0.885728
 C        -2.955978         1.092992         1.259864
 C        -2.992075        -0.347994         0.578930
 C        -3.260802        -1.660657         1.382560
 C        -2.326156        -2.109741         2.540305
 O        -0.992620        -2.582922         2.145472
 C        -1.117056        -1.370429         2.847744
 C        -0.799984        -0.124199         1.995953
 H        -0.542623         0.487228        -0.726887
 H        -3.380448         1.011139         2.230321
 H        -3.406929         1.810103         0.502414
 H        -3.271158        -0.409519        -0.492077
 H        -4.238535        -1.559466         2.060432
 H        -3.257317        -2.553223         0.742264
 H        -2.897874        -2.611126         3.367929
 H        -0.666615        -1.264843         3.845423
 H        -0.637712         0.640503         2.796397
 H         0.181716        -0.316794         1.459354
