19
Iteration:  2089
 O        -0.869748         0.942221        -0.140275
 C        -1.573947         0.449297         0.982203
 C        -2.988531         0.985063         1.178015
 C        -2.907292        -0.408196         0.698069
 C        -3.335015        -1.646475         1.469998
 C        -2.356157        -2.080528         2.526260
 O        -1.114637        -2.621621         2.017885
 C        -1.053024        -1.347975         2.736084
 C        -0.791326         0.024837         2.109664
 H        -1.464682         1.421745        -0.746303
 H        -3.233177         1.128977         2.170988
 H        -3.438466         1.625352         0.421833
 H        -3.079131        -0.617311        -0.360217
 H        -4.242281        -1.471080         2.010101
 H        -3.662701        -2.508291         0.831448
 H        -2.522510        -2.596208         3.491322
 H        -0.527861        -1.412776         3.685358
 H        -0.881068         0.664906         3.007934
 H         0.275585         0.009838         1.854194
