19
Iteration:  4225charge 0 multiplicity 1
 O        -0.908663         1.013416        -0.144441
 C        -1.666807         0.320366         0.952743
 C        -3.049024         0.964472         1.325034
 C        -2.935050        -0.438873         0.632326
 C        -3.291868        -1.672406         1.329811
 C        -2.368919        -2.124697         2.354129
 O        -0.930024        -2.521844         2.260287
 C        -1.202321        -1.233740         2.856060
 C        -0.691832        -0.138611         1.967206
 H        -1.105962         1.990136        -0.244047
 H        -3.316914         1.081473         2.433090
 H        -3.376777         1.811570         0.734753
 H        -3.261302        -0.516642        -0.449683
 H        -4.203485        -1.547786         1.884446
 H        -3.467763        -2.543170         0.570318
 H        -2.826818        -2.317142         3.355604
 H        -1.079528        -1.100594         3.919540
 H        -0.255662         0.744998         2.393374
 H         0.194742        -0.502569         1.359744
