19
Iteration:  4972
 O        -1.134400         1.010116        -0.218772
 C        -1.598214         0.363771         0.922234
 C        -2.909375         0.897893         1.404056
 C        -2.849585        -0.447889         0.505191
 C        -3.335844        -1.673280         1.335238
 C        -2.348791        -2.094360         2.429374
 O        -0.991856        -2.530376         2.200037
 C        -1.176524        -1.242585         2.870786
 C        -0.664997        -0.056439         2.049978
 H        -0.614013         1.828005         0.061154
 H        -3.225444         0.717406         2.443953
 H        -3.361154         1.777779         1.021663
 H        -3.116136        -0.286374        -0.608184
 H        -4.296411        -1.403702         1.654731
 H        -3.442156        -2.604946         0.729168
 H        -2.919835        -2.834454         3.108465
 H        -0.998599        -1.315497         3.959953
 H        -0.398568         0.809479         2.726460
 H         0.394721        -0.240907         1.809813
