19
Iteration:  2162charge 0 multiplicity 1
 O        -0.900787         0.772886        -0.199211
 C        -1.615981         0.403467         1.025918
 C        -2.945044         1.109558         1.238389
 C        -2.891287        -0.359762         0.757928
 C        -3.324285        -1.606437         1.453932
 C        -2.331507        -2.183040         2.409366
 O        -0.995297        -2.495996         1.948534
 C        -1.110824        -1.331977         2.752462
 C        -0.866810         0.072033         2.216724
 H        -1.413704         0.404711        -0.897490
 H        -3.259054         1.122220         2.280479
 H        -3.399528         1.797430         0.410828
 H        -3.135343        -0.529616        -0.374118
 H        -4.227300        -1.568356         2.186239
 H        -3.666307        -2.336193         0.689151
 H        -2.553176        -2.737708         3.345430
 H        -0.761754        -1.463721         3.792436
 H        -1.076521         0.690343         3.086347
 H         0.273394         0.036761         2.043587
