19
Iteration:  2226
 O        -0.956288         0.919091        -0.112631
 C        -1.633203         0.402883         0.973954
 C        -2.998975         0.931975         1.132153
 C        -2.809049        -0.492928         0.662078
 C        -3.497358        -1.558337         1.635053
 C        -2.346265        -2.096832         2.504703
 O        -1.057455        -2.427918         1.806386
 C        -1.078273        -1.356518         2.774836
 C        -0.690358        -0.076845         2.196051
 H         0.021451         0.912004        -0.020552
 H        -3.509039         1.091675         2.106694
 H        -3.387770         1.706969         0.373841
 H        -2.905091        -0.770716        -0.443936
 H        -4.287572        -1.011461         2.162560
 H        -3.976281        -2.327939         1.080524
 H        -2.695664        -2.712867         3.270379
 H        -0.651204        -1.646634         3.772916
 H        -0.748290         0.835513         2.824803
 H         0.403431         0.113834         2.030407
