19
Iteration:  1369
 O        -0.880667         0.855540        -0.088844
 C        -1.722781         0.465888         0.918853
 C        -3.101560         0.994792         1.038674
 C        -2.871867        -0.485179         0.551103
 C        -3.239491        -1.605952         1.537238
 C        -2.318357        -2.174392         2.521310
 O        -0.863197        -2.434438         2.020149
 C        -1.153179        -1.289851         2.868979
 C        -0.970154         0.056901         2.186699
 H        -0.179885         0.142132        -0.006599
 H        -3.510646         1.093398         1.991799
 H        -3.347722         1.473737         0.090126
 H        -3.134339        -0.569286        -0.509730
 H        -4.193527        -1.490477         1.960897
 H        -3.415093        -2.482289         0.880509
 H        -2.793467        -2.882354         3.116771
 H        -0.750216        -1.439453         3.926609
 H        -0.988860         0.876543         2.965087
 H         0.153562         0.092541         2.021633
