19
Iteration:    22
 O        -0.842902         0.658973        -0.073041
 C        -1.771099         0.320771         0.949852
 C        -3.195789         0.869059         0.802845
 C        -2.873768        -0.607876         0.490853
 C        -3.298077        -1.681132         1.510765
 C        -2.121313        -2.128070         2.352504
 O        -0.713961        -2.245948         2.088725
 C        -1.304721        -1.094800         3.014227
 C        -1.035144         0.208903         2.334395
 H        -0.000013         0.871996         0.393050
 H        -3.776875         1.020826         1.702536
 H        -3.304949         1.542213        -0.001373
 H        -2.622319        -0.986495        -0.531727
 H        -3.990756        -1.212355         2.234482
 H        -3.874347        -2.531667         1.096518
 H        -2.511956        -2.920916         3.006374
 H        -1.097477        -1.237794         4.073814
 H        -1.305398         1.042695         2.946243
 H         0.007151         0.252054         2.172742
