19
Iteration:  1722charge 0 multiplicity 1
 O        -0.991508         1.266505        -0.016052
 C        -1.605997         0.378058         0.905591
 C        -3.016085         0.840614         1.330441
 C        -2.875235        -0.456770         0.567665
 C        -3.205306        -1.798007         1.224969
 C        -2.400787        -1.951596         2.523579
 O        -1.110714        -2.580191         2.455020
 C        -1.205668        -1.148326         2.817035
 C        -0.657720        -0.237283         1.722582
 H        -0.253444         0.685921        -0.399819
 H        -3.521252         0.785581         2.380041
 H        -3.522918         1.488417         0.693923
 H        -3.280664        -0.325360        -0.463415
 H        -4.271817        -1.988984         1.429680
 H        -2.783189        -2.503490         0.538130
 H        -3.084451        -2.216070         3.245979
 H        -0.750642        -1.016287         3.805162
 H        -0.064898         0.602128         2.142868
 H         0.168793        -0.909168         1.333622
