19
Iteration:  4447charge 0 multiplicity 1
 O        -0.983718         1.137548        -0.049969
 C        -1.694263         0.392708         0.834361
 C        -2.989782         0.873570         1.440519
 C        -2.974204        -0.389393         0.549781
 C        -3.122336        -1.763032         1.192247
 C        -2.314988        -2.017359         2.444249
 O        -1.076884        -2.568070         2.452548
 C        -1.198574        -1.147073         2.830679
 C        -0.750239        -0.292690         1.756525
 H        -0.160096         1.636375         0.212357
 H        -2.972957         0.917040         2.579392
 H        -3.504185         1.691416         1.032551
 H        -3.472399        -0.092050        -0.389815
 H        -4.146445        -2.010927         1.327871
 H        -2.808492        -2.595544         0.513308
 H        -2.955374        -2.150342         3.398178
 H        -0.822010        -1.033712         3.908285
 H        -0.238090         0.628335         2.056681
 H        -0.020535        -0.891243         1.163342
