19
Iteration:  2892charge 0 multiplicity 1
 O        -0.973807         1.113108        -0.085810
 C        -1.642669         0.379218         0.920585
 C        -3.039057         0.902030         1.205329
 C        -2.859412        -0.445097         0.592840
 C        -3.383045        -1.600766         1.437132
 C        -2.357781        -2.070058         2.508632
 O        -1.077449        -2.622013         2.063536
 C        -1.085859        -1.312445         2.836234
 C        -0.673623        -0.042273         2.059623
 H        -0.157388         0.629791        -0.425017
 H        -3.234455         0.975885         2.253956
 H        -3.264267         1.740563         0.460928
 H        -3.222510        -0.614186        -0.411764
 H        -4.317215        -1.312701         2.084297
 H        -3.537491        -2.464217         0.788233
 H        -2.815762        -2.598655         3.377492
 H        -0.573666        -1.206075         3.796110
 H        -0.502197         0.632141         2.904490
 H         0.340972        -0.272650         1.616054
