19
Iteration:   657
 O        -0.734462         0.757450        -0.081998
 C        -1.720311         0.430599         0.880909
 C        -3.210794         0.925508         0.919787
 C        -2.918086        -0.506638         0.599778
 C        -3.308217        -1.679026         1.471005
 C        -2.229393        -2.203103         2.495810
 O        -0.778144        -2.326137         2.095339
 C        -1.217212        -1.267534         2.911748
 C        -0.967621         0.135497         2.278146
 H        -1.103372         1.283972        -0.789378
 H        -3.521878         1.248961         1.936773
 H        -3.607738         1.543226         0.173198
 H        -2.934169        -0.645492        -0.517117
 H        -4.154902        -1.323039         2.136342
 H        -3.751460        -2.558005         0.941267
 H        -2.542454        -3.092986         3.128737
 H        -0.947281        -1.310110         3.928218
 H        -1.034499         0.929265         3.014354
 H         0.081337         0.088800         1.965096
