19
Iteration:  4161
 O        -1.056119         0.859644        -0.153888
 C        -1.710635         0.394958         1.035178
 C        -3.044561         0.949843         1.241508
 C        -2.840263        -0.440660         0.591145
 C        -3.260183        -1.666045         1.314697
 C        -2.333294        -2.054750         2.549045
 O        -1.075306        -2.526801         2.060241
 C        -1.066487        -1.286413         2.806629
 C        -0.665658         0.046938         2.129840
 H        -0.364444         1.417616         0.214932
 H        -3.506793         0.966182         2.265412
 H        -3.120116         1.817868         0.565106
 H        -2.901930        -0.494909        -0.545827
 H        -4.329911        -1.615652         1.529412
 H        -3.358816        -2.441122         0.464953
 H        -2.840455        -2.349017         3.548993
 H        -0.612191        -1.598066         3.731555
 H        -0.728058         0.821144         2.896639
 H         0.316993        -0.090107         1.623551
