19
Iteration:   771
 O        -0.949643         0.844831        -0.074531
 C        -1.717692         0.279518         1.013176
 C        -3.061703         0.910852         0.840100
 C        -2.976192        -0.535336         0.558130
 C        -3.292554        -1.632500         1.509695
 C        -2.254664        -2.121665         2.417360
 O        -0.860039        -2.334142         2.021168
 C        -1.158885        -1.237959         2.965305
 C        -0.866725         0.099002         2.251740
 H        -0.114868         0.922118         0.402338
 H        -3.581524         1.230279         1.815455
 H        -3.082650         1.614665         0.011242
 H        -3.113410        -0.907550        -0.441850
 H        -4.062769        -1.161067         2.165398
 H        -3.757300        -2.518192         1.128502
 H        -2.629904        -2.980137         2.962254
 H        -0.611999        -1.377048         3.997464
 H        -0.950949         0.863289         2.973662
 H         0.206344         0.092808         1.981809
