19
Iteration:  1081charge 0 multiplicity 1
 O        -1.108907         1.308100        -0.136463
 C        -1.612272         0.426536         0.877843
 C        -3.051918         0.784928         1.324389
 C        -2.870503        -0.503536         0.542057
 C        -3.042467        -1.889656         1.099804
 C        -2.419891        -2.068880         2.580940
 O        -1.065364        -2.542944         2.755972
 C        -1.328162        -1.087961         2.739746
 C        -0.540915        -0.264916         1.665208
 H        -0.670723         2.010776         0.327142
 H        -3.358204         0.798848         2.325864
 H        -3.322579         1.611245         0.661222
 H        -3.399951        -0.362046        -0.429778
 H        -4.145487        -1.933366         1.026227
 H        -2.630229        -2.696760         0.427328
 H        -2.975424        -2.112151         3.522221
 H        -1.245227        -0.687709         3.825999
 H         0.189270         0.424730         2.147768
 H         0.138139        -0.959560         1.126911
