19
Iteration:  2279
 O        -0.840523         0.865244        -0.102718
 C        -1.677680         0.395060         1.010333
 C        -3.025128         1.048424         1.160970
 C        -3.066481        -0.364568         0.711837
 C        -3.403953        -1.598837         1.518315
 C        -2.331652        -2.102333         2.440759
 O        -0.984389        -2.567259         1.949757
 C        -0.979704        -1.333302         2.691540
 C        -0.784281         0.017740         2.213606
 H        -0.505899         0.106246        -0.653941
 H        -3.197322         1.255051         2.221851
 H        -3.042145         1.862295         0.367470
 H        -3.145790        -0.563359        -0.403191
 H        -4.253809        -1.358693         2.134995
 H        -3.783358        -2.387245         0.857451
 H        -2.779780        -2.817345         3.098277
 H        -0.601796        -1.514993         3.721807
 H        -1.091279         0.734216         3.038186
 H         0.234463         0.261230         1.908197
