19
Iteration:   816charge 0 multiplicity 1
 O        -0.876862         0.757551        -0.161909
 C        -1.619510         0.480792         0.974236
 C        -3.066355         0.844031         1.091346
 C        -2.852007        -0.571048         0.616585
 C        -3.314063        -1.763523         1.415789
 C        -2.266139        -2.070458         2.503261
 O        -1.070257        -2.410110         2.018111
 C        -1.087871        -1.208630         2.750901
 C        -0.919793         0.249197         2.296399
 H        -0.004782         1.064206         0.031869
 H        -3.384394         1.206132         2.148138
 H        -3.567727         1.360385         0.272664
 H        -3.006936        -0.611137        -0.464717
 H        -4.238519        -1.759259         2.022598
 H        -3.301417        -2.642993         0.780701
 H        -2.597074        -2.603368         3.417853
 H        -0.738438        -1.511091         3.882862
 H        -1.201833         0.891752         3.107896
 H         0.108551         0.611060         2.123617
