19
Iteration:  2307charge 0 multiplicity 1
 O        -0.821369         0.705970        -0.120370
 C        -1.715375         0.419412         0.924758
 C        -3.032666         1.177450         1.238890
 C        -2.943170        -0.338485         0.707083
 C        -3.245062        -1.573529         1.501674
 C        -2.290306        -2.129353         2.457829
 O        -1.020920        -2.526364         1.900420
 C        -1.032669        -1.322911         2.795164
 C        -0.901037        -0.017580         2.223915
 H        -1.315306         0.538857        -0.990246
 H        -3.189951         1.111023         2.310668
 H        -3.465381         1.945469         0.576118
 H        -3.120715        -0.404975        -0.369574
 H        -4.255179        -1.434499         2.000716
 H        -3.466157        -2.430602         0.784372
 H        -2.705015        -2.943200         3.186441
 H        -0.585013        -1.499385         3.767652
 H        -1.216311         0.648650         3.024921
 H         0.134123         0.104152         1.848488
