19
Iteration:   265charge 0 multiplicity 1
 O        -1.126003         1.258521        -0.127534
 C        -1.648992         0.305686         0.855258
 C        -3.045397         0.767337         1.138473
 C        -2.880736        -0.573209         0.479258
 C        -3.070859        -1.916550         1.111273
 C        -2.384826        -1.924472         2.522794
 O        -1.032023        -2.475360         2.694783
 C        -1.184344        -1.118237         2.931601
 C        -0.660434        -0.128364         1.866640
 H        -0.175449         1.537143         0.025671
 H        -3.530322         0.766955         2.204382
 H        -3.400840         1.599279         0.477782
 H        -3.262167        -0.485656        -0.504114
 H        -4.217134        -2.008123         1.228723
 H        -2.826648        -2.792680         0.469527
 H        -3.050124        -2.278125         3.351486
 H        -1.100027        -0.800437         4.016460
 H        -0.089049         0.704655         2.353917
 H         0.086190        -0.621620         1.269203
