19
Iteration:  1597
 O        -1.052661         1.114572        -0.176179
 C        -1.627083         0.383942         0.910719
 C        -3.072004         0.903929         1.185602
 C        -2.827946        -0.463769         0.491935
 C        -3.254371        -1.690748         1.329827
 C        -2.311502        -2.087075         2.425466
 O        -0.997003        -2.567639         2.394869
 C        -1.196038        -1.275042         2.848902
 C        -0.700920        -0.065956         2.043058
 H        -0.108026         1.228091         0.127289
 H        -3.384106         1.042484         2.259124
 H        -3.349858         1.743283         0.597716
 H        -3.213594        -0.474231        -0.548627
 H        -4.134887        -1.261761         1.801706
 H        -3.528034        -2.608723         0.785254
 H        -3.022161        -2.516438         3.230427
 H        -0.924182        -1.364930         3.930661
 H        -0.367997         0.596398         2.825296
 H         0.108941        -0.505494         1.482155
