19
Iteration:  4686charge 0 multiplicity 1
 O        -1.102495         0.984831        -0.228174
 C        -1.684813         0.517116         0.994806
 C        -3.054023         0.978046         1.180828
 C        -2.812772        -0.428526         0.567850
 C        -3.266442        -1.643961         1.371127
 C        -2.400266        -2.052892         2.514413
 O        -0.969341        -2.621621         2.146939
 C        -1.106404        -1.382994         2.932177
 C        -0.652741        -0.079657         2.127406
 H        -0.757022         1.889366        -0.330665
 H        -3.495912         1.068307         2.148251
 H        -3.256080         1.837136         0.494308
 H        -2.926335        -0.521725        -0.507439
 H        -4.398806        -1.652431         1.658717
 H        -3.195482        -2.376088         0.496133
 H        -2.886470        -2.792119         3.242934
 H        -0.515922        -1.471816         3.848116
 H        -0.666152         0.558117         3.009995
 H         0.378436        -0.149076         1.792306
