19
Iteration:    96charge 0 multiplicity 1
 O        -0.756902         0.903663         0.005044
 C        -1.751563         0.413515         0.911380
 C        -3.223269         0.821479         0.910546
 C        -2.733319        -0.632009         0.468104
 C        -3.201866        -1.812237         1.458068
 C        -2.308460        -1.970110         2.590390
 O        -0.966135        -2.364682         2.117379
 C        -1.106205        -1.130631         2.892250
 C        -0.984025         0.120335         2.231478
 H        -0.914163         0.496263        -0.889354
 H        -3.778918         0.789422         1.830954
 H        -3.734734         1.405303         0.170497
 H        -2.825402        -0.891746        -0.713333
 H        -4.289570        -1.797281         1.709702
 H        -3.093145        -2.825462         0.945037
 H        -2.793912        -2.598747         3.370617
 H        -0.609516        -1.172433         3.864333
 H        -1.357685         0.955878         2.910672
 H         0.087827         0.391776         2.118514
