19
Iteration:  1619
 O        -0.954399         1.015352        -0.186252
 C        -1.642921         0.360245         0.880163
 C        -3.017055         0.943362         1.282746
 C        -2.920648        -0.391871         0.535495
 C        -3.219734        -1.717668         1.254055
 C        -2.353606        -2.074144         2.558836
 O        -0.970376        -2.540044         2.293638
 C        -1.261609        -1.183632         2.955327
 C        -0.707753        -0.130180         1.923299
 H        -0.559934         1.747804         0.297805
 H        -3.364689         0.730496         2.305557
 H        -3.599461         1.748474         0.826750
 H        -3.150800        -0.465858        -0.539593
 H        -4.311453        -1.702552         1.437057
 H        -3.086294        -2.557627         0.548979
 H        -2.954021        -2.679724         3.372671
 H        -0.958328        -1.133303         4.041038
 H        -0.515938         0.675554         2.627420
 H         0.184976        -0.549183         1.500116
