19
Iteration:  1260
 O        -1.027727         1.052884        -0.180805
 C        -1.662410         0.342463         0.878506
 C        -3.025066         0.891062         1.075132
 C        -2.793926        -0.523305         0.469121
 C        -3.183937        -1.661993         1.416881
 C        -2.362748        -2.113724         2.573386
 O        -0.993285        -2.585704         2.298719
 C        -1.119779        -1.242471         2.852039
 C        -0.811816         0.008392         2.112576
 H        -0.997046         1.989844         0.082593
 H        -3.558763         1.118104         1.996870
 H        -3.306358         1.731975         0.352980
 H        -3.049317        -0.548977        -0.583857
 H        -4.201463        -1.388890         1.775679
 H        -3.394904        -2.530552         0.698951
 H        -2.819453        -2.747342         3.325318
 H        -0.664981        -1.114166         3.915255
 H        -1.031774         0.692925         2.952475
 H         0.285703        -0.000460         1.880751
