19
Iteration:  4153charge 0 multiplicity 1
 O        -0.973324         0.857474        -0.178092
 C        -1.752753         0.339985         1.056228
 C        -3.083011         0.989333         1.266158
 C        -2.840696        -0.471079         0.581413
 C        -3.307989        -1.622347         1.333186
 C        -2.334976        -2.054320         2.510110
 O        -1.020354        -2.491950         2.081268
 C        -1.093344        -1.290743         2.767277
 C        -0.718416         0.028935         2.102936
 H        -0.293019         1.409021         0.257306
 H        -3.607287         0.942159         2.249077
 H        -3.269050         1.860184         0.719509
 H        -2.828854        -0.500578        -0.535102
 H        -4.346333        -1.501860         1.763706
 H        -3.253227        -2.471063         0.707028
 H        -2.604403        -2.684981         3.329046
 H        -0.781228        -1.350826         3.849664
 H        -0.384831         0.656928         2.998633
 H         0.239636        -0.156538         1.610855
