19
Iteration:   347
 O        -1.151089         1.170896        -0.269735
 C        -1.626911         0.298753         0.806018
 C        -2.898979         0.831683         1.330487
 C        -2.813644        -0.513799         0.536367
 C        -2.996187        -1.862877         1.057058
 C        -2.406269        -2.076085         2.489325
 O        -1.009724        -2.422947         2.760858
 C        -1.380536        -1.076176         2.917519
 C        -0.737799        -0.199583         1.871717
 H        -1.078037         2.098338         0.011211
 H        -3.065194         1.090415         2.288604
 H        -3.287424         1.628998         0.648202
 H        -3.220791        -0.264645        -0.501105
 H        -4.024886        -2.187077         1.020824
 H        -2.394634        -2.568740         0.409842
 H        -3.017832        -2.724042         3.134684
 H        -1.298924        -0.771955         3.952785
 H        -0.535955         0.700166         2.402485
 H         0.220486        -0.698682         1.504197
