19
Iteration:  2686charge 0 multiplicity 1
 O        -1.032999         1.139030        -0.196787
 C        -1.584640         0.420916         0.863859
 C        -2.910152         0.809350         1.506174
 C        -2.972715        -0.390409         0.606928
 C        -3.219526        -1.753398         1.153383
 C        -2.436433        -1.985715         2.533108
 O        -1.106632        -2.518385         2.344746
 C        -1.200486        -1.228989         2.815464
 C        -0.659462        -0.168863         1.888425
 H        -0.332000         0.518538        -0.533037
 H        -2.667493         0.672873         2.650411
 H        -3.439536         1.739885         1.365495
 H        -3.102656         0.034326        -0.462852
 H        -4.313937        -1.988533         1.300040
 H        -2.965327        -2.621162         0.412548
 H        -2.896595        -2.445678         3.425373
 H        -0.865649        -1.085609         3.915921
 H        -0.205157         0.638884         2.457952
 H         0.215645        -0.726448         1.510968
