19
Iteration:  4342
 O        -0.997643         1.078941        -0.138306
 C        -1.690078         0.432798         0.973601
 C        -3.039728         0.937668         1.473446
 C        -3.000703        -0.396252         0.551121
 C        -3.177102        -1.798043         1.091164
 C        -2.348625        -2.008241         2.496621
 O        -1.025075        -2.588388         2.477147
 C        -1.228879        -1.093576         2.798335
 C        -0.611164        -0.319156         1.768712
 H        -0.667224         1.984159         0.165912
 H        -3.175373         0.919947         2.617564
 H        -3.432198         1.806786         1.023895
 H        -3.116826         0.026970        -0.476219
 H        -4.301662        -1.909111         1.336621
 H        -2.752496        -2.532716         0.424387
 H        -2.893100        -2.454487         3.312783
 H        -0.874064        -1.091324         3.862280
 H         0.162665         0.446245         2.155068
 H        -0.033296        -1.017685         1.144699
