19
Iteration:  1078
 O        -1.128066         1.323767        -0.157228
 C        -1.644861         0.423659         0.868548
 C        -3.036655         0.799397         1.294230
 C        -2.887337        -0.465745         0.553283
 C        -3.008114        -1.888372         1.107865
 C        -2.423277        -2.091306         2.585222
 O        -1.076162        -2.539864         2.751784
 C        -1.312036        -1.088466         2.762024
 C        -0.530637        -0.313592         1.687963
 H        -0.661477         2.083824         0.278178
 H        -3.291673         0.692797         2.397022
 H        -3.317997         1.587837         0.651120
 H        -3.256777        -0.356046        -0.459116
 H        -4.140290        -1.905880         1.079203
 H        -2.570710        -2.681032         0.519256
 H        -3.065610        -2.175506         3.471189
 H        -1.242937        -0.665691         3.684508
 H         0.166256         0.444183         2.271513
 H         0.159713        -0.978543         1.116763
