19
Iteration:  2109charge 0 multiplicity 1
 O        -0.764224         0.793802        -0.062929
 C        -1.724514         0.383538         0.926111
 C        -3.075830         1.035118         1.307180
 C        -2.910538        -0.429544         0.638601
 C        -3.344002        -1.630227         1.492398
 C        -2.338570        -2.078893         2.496392
 O        -1.061580        -2.483693         1.918440
 C        -1.125259        -1.289054         2.801919
 C        -0.727108         0.043732         2.079785
 H        -1.249778         1.140176        -0.796885
 H        -3.195443         1.122764         2.332157
 H        -3.343290         1.849421         0.596415
 H        -3.287301        -0.633106        -0.386972
 H        -4.315313        -1.557843         1.984386
 H        -3.451370        -2.579326         0.923681
 H        -2.643590        -2.886450         3.261325
 H        -0.585869        -1.454769         3.735117
 H        -0.662565         0.859422         2.761931
 H         0.307197        -0.147442         1.804750
