19
Iteration:  2951
 O        -0.897625         0.978575        -0.087652
 C        -1.631214         0.378370         0.929213
 C        -3.044436         0.999706         1.240508
 C        -2.973705        -0.471092         0.603461
 C        -3.304407        -1.656623         1.430609
 C        -2.324862        -2.097053         2.542480
 O        -1.043686        -2.508692         1.998846
 C        -1.123972        -1.306530         2.789435
 C        -0.715358        -0.005857         2.097135
 H        -0.615285         0.262686        -0.652527
 H        -3.313170         1.145128         2.351908
 H        -3.043544         1.976700         0.861794
 H        -3.270253        -0.413554        -0.480734
 H        -4.276646        -1.505018         2.001058
 H        -3.547825        -2.522962         0.782207
 H        -2.881962        -2.756259         3.239558
 H        -0.757407        -1.436762         3.901618
 H        -0.730311         0.721517         2.943386
 H         0.318901         0.013939         1.689089
