19
Iteration:  2468charge 0 multiplicity 1
 O        -0.886361         0.828722        -0.137683
 C        -1.681120         0.389795         0.979140
 C        -2.938858         0.940992         1.400259
 C        -2.889552        -0.445638         0.669502
 C        -3.322453        -1.713089         1.355623
 C        -2.356026        -2.052232         2.364340
 O        -1.037959        -2.371219         2.032886
 C        -1.186406        -1.194208         2.815594
 C        -0.699537        -0.036300         2.112022
 H        -1.446103         0.390128        -0.844227
 H        -3.246729         0.891496         2.414777
 H        -3.486019         1.531620         0.656371
 H        -3.176634        -0.175205        -0.333572
 H        -4.279828        -1.618015         1.895141
 H        -3.370038        -2.518771         0.661809
 H        -2.709634        -2.640928         3.123197
 H        -0.993805        -1.271437         3.924535
 H        -0.543170         0.770779         2.895605
 H         0.340425        -0.254487         1.739215
