19
Iteration:   232
 O        -1.016110         1.241202        -0.270090
 C        -1.645135         0.444215         0.891378
 C        -3.056116         0.747506         1.205579
 C        -2.747450        -0.501842         0.490881
 C        -3.040322        -1.844700         1.187269
 C        -2.389293        -2.079577         2.515382
 O        -0.947014        -2.514475         2.641992
 C        -1.352623        -1.098888         2.918137
 C        -0.807444        -0.079987         1.966399
 H        -0.963685         0.645588        -1.022467
 H        -3.405314         0.357474         2.212081
 H        -3.559327         1.681472         0.736246
 H        -3.028952        -0.603844        -0.476805
 H        -4.169519        -1.816306         1.479031
 H        -2.944196        -2.715656         0.529124
 H        -2.936923        -2.520012         3.386019
 H        -1.338924        -0.676424         3.963633
 H        -0.295516         0.769958         2.478645
 H        -0.077049        -0.684811         1.494232
