19
Iteration:   978
 O        -1.112898         1.207450        -0.314194
 C        -1.643655         0.331138         0.863938
 C        -3.077298         0.815902         1.342058
 C        -2.836263        -0.369634         0.436664
 C        -3.069913        -1.758404         1.140630
 C        -2.379381        -2.066758         2.596119
 O        -0.931465        -2.555459         2.580993
 C        -1.347453        -1.214485         2.987439
 C        -0.683585        -0.171310         1.877048
 H        -0.458897         1.835387         0.105075
 H        -3.417002         0.716467         2.388391
 H        -3.352211         1.780802         0.755501
 H        -2.992584        -0.384606        -0.662599
 H        -4.190421        -1.778871         1.349303
 H        -2.836209        -2.500927         0.366494
 H        -2.865047        -2.570522         3.449021
 H        -1.300104        -0.944831         3.978341
 H        -0.052079         0.628031         2.432294
 H         0.024695        -0.915579         1.465581
