19
Iteration:  2515
 O        -0.955173         1.007121        -0.150985
 C        -1.687945         0.416702         0.867303
 C        -3.013644         1.052693         1.309592
 C        -2.963219        -0.347555         0.714559
 C        -3.170040        -1.731106         1.255940
 C        -2.378863        -2.019282         2.492631
 O        -1.011864        -2.710234         2.206180
 C        -1.114470        -1.289927         2.809119
 C        -0.768700        -0.080578         2.075320
 H        -1.006353         0.377727        -0.847721
 H        -3.202264         1.321777         2.387173
 H        -3.189747         1.813649         0.503716
 H        -3.466195        -0.213268        -0.306150
 H        -4.169346        -1.624507         1.706038
 H        -3.161379        -2.509176         0.486807
 H        -2.857552        -2.456652         3.465155
 H        -0.569148        -1.216851         3.778875
 H        -0.707404         0.868824         2.762511
 H         0.369160        -0.036978         1.706582
