19
Iteration:    75
 O        -0.790086         0.784139        -0.058386
 C        -1.674187         0.377175         0.915970
 C        -3.070803         0.779393         0.886347
 C        -2.815116        -0.613255         0.608756
 C        -3.205106        -1.818727         1.376183
 C        -2.257860        -2.063143         2.609171
 O        -0.977805        -2.401784         2.084007
 C        -1.116078        -1.126880         2.847476
 C        -1.066605         0.347758         2.350382
 H        -1.332425         1.061128        -0.825672
 H        -3.594720         1.171272         1.703704
 H        -3.320962         1.425251         0.092917
 H        -3.011556        -0.833916        -0.561635
 H        -4.298176        -1.778683         1.671674
 H        -3.141603        -2.688174         0.647275
 H        -2.712804        -2.705010         3.383633
 H        -0.670663        -1.123124         3.830881
 H        -1.583274         0.962596         3.101151
 H        -0.157838         0.890085         2.236522
