19
Iteration:  2097charge 0 multiplicity 1
 O        -0.820217         0.886221        -0.116757
 C        -1.649234         0.421424         0.959049
 C        -2.965055         0.978958         1.205531
 C        -2.921127        -0.456681         0.691578
 C        -3.331848        -1.670145         1.498731
 C        -2.320671        -2.108186         2.537542
 O        -1.105164        -2.582673         1.975299
 C        -1.068416        -1.311650         2.707438
 C        -0.777741         0.080603         2.177729
 H        -1.333889         1.336934        -0.833713
 H        -3.341301         1.145358         2.200397
 H        -3.511688         1.742262         0.563388
 H        -3.228121        -0.254335        -0.387553
 H        -4.278710        -1.321192         1.972034
 H        -3.538864        -2.418668         0.718844
 H        -2.893992        -2.603234         3.408654
 H        -0.683822        -1.499840         3.719965
 H        -0.638130         0.843248         2.904184
 H         0.078844         0.042183         1.481985
