19
Iteration:  2827charge 0 multiplicity 1
 O        -1.075440         0.925153        -0.228477
 C        -1.582208         0.432250         0.963967
 C        -2.939541         0.977957         1.451483
 C        -2.814851        -0.376302         0.636216
 C        -3.242245        -1.762434         1.185329
 C        -2.380648        -2.014370         2.487140
 O        -1.070431        -2.468408         2.187830
 C        -1.176269        -1.258269         2.791890
 C        -0.705437        -0.112595         2.124125
 H        -1.038209         0.128847        -0.745541
 H        -3.019645         0.897045         2.548998
 H        -3.409982         1.959245         1.045540
 H        -3.183943        -0.204350        -0.397234
 H        -4.352340        -1.579793         1.378282
 H        -3.144422        -2.509155         0.365947
 H        -2.898886        -2.620895         3.259534
 H        -0.839949        -1.333450         3.856473
 H        -0.611123         0.794417         2.751612
 H         0.330227        -0.377953         1.722182
