19
Iteration:   887charge 0 multiplicity 1
 O        -0.959251         0.879641        -0.165308
 C        -1.631105         0.433379         0.950455
 C        -2.982618         0.881814         1.132437
 C        -2.845055        -0.536008         0.629126
 C        -3.314633        -1.729568         1.391473
 C        -2.319643        -2.195371         2.461222
 O        -0.919872        -2.423647         2.237311
 C        -1.272603        -1.172480         2.768089
 C        -0.748978         0.054609         2.126800
 H        -1.283113         1.745558        -0.371415
 H        -3.429906         0.868033         2.130347
 H        -3.296457         1.655220         0.511813
 H        -2.943180        -0.533698        -0.449854
 H        -4.264888        -1.505749         1.865618
 H        -3.420483        -2.527240         0.616865
 H        -2.844716        -2.654927         3.334399
 H        -1.267010        -1.066889         3.902095
 H        -0.700340         0.948663         2.856886
 H         0.305907         0.022671         1.752375
