19
Iteration:  3099charge 0 multiplicity 1
 O        -0.971201         1.054443        -0.131919
 C        -1.664485         0.395437         1.008119
 C        -3.040935         1.099549         1.019436
 C        -2.824298        -0.428441         0.609796
 C        -3.362915        -1.531404         1.529557
 C        -2.347300        -2.155998         2.498548
 O        -1.050532        -2.590591         2.023353
 C        -0.985431        -1.453223         2.812271
 C        -0.752062        -0.062546         2.234156
 H        -1.012267         0.323909        -0.785385
 H        -3.748089         1.152184         1.949165
 H        -3.481858         1.860330         0.386061
 H        -2.816875        -0.603505        -0.450333
 H        -4.264131        -1.245777         2.066303
 H        -3.650885        -2.443861         0.917314
 H        -2.574787        -2.905152         3.389960
 H        -0.578633        -1.685973         3.825265
 H        -0.640848         0.733996         3.044525
 H         0.252870         0.127439         1.666268
