19
Iteration:   630charge 0 multiplicity 1
 O        -0.906632         0.846810        -0.140580
 C        -1.719496         0.336226         0.901230
 C        -3.004771         0.940784         0.972743
 C        -2.923540        -0.574163         0.567501
 C        -3.237919        -1.696370         1.409772
 C        -2.178590        -2.079884         2.522045
 O        -0.895159        -2.469273         2.151121
 C        -1.115856        -1.242005         2.888088
 C        -1.054831         0.117823         2.251626
 H        -1.212285         1.728934        -0.405691
 H        -3.468511         1.395094         1.833614
 H        -2.993326         1.701526         0.099290
 H        -2.648820        -0.719194        -0.449732
 H        -4.113760        -1.456528         2.017503
 H        -3.540323        -2.636932         0.950843
 H        -2.654579        -2.718940         3.206559
 H        -0.765844        -1.272217         3.997464
 H        -1.513187         0.797856         3.108209
 H        -0.026755         0.590544         2.130313
