19
Iteration:  4674charge 0 multiplicity 1
 O        -1.037665         0.941329        -0.203832
 C        -1.655421         0.357866         0.999708
 C        -3.075196         0.987805         1.224519
 C        -2.851312        -0.380509         0.585549
 C        -3.234735        -1.643301         1.318883
 C        -2.338457        -2.066771         2.481880
 O        -0.969983        -2.535074         2.159158
 C        -1.115851        -1.348267         2.835879
 C        -0.720326        -0.073033         2.143709
 H        -1.060034         1.838844         0.112689
 H        -3.454400         0.939924         2.226867
 H        -3.371453         1.895567         0.601517
 H        -2.894531        -0.417998        -0.520977
 H        -4.234345        -1.432030         1.869513
 H        -3.427573        -2.557552         0.699518
 H        -2.848956        -2.655045         3.293180
 H        -1.040092        -1.348145         3.918479
 H        -0.362547         0.772943         2.682368
 H         0.120163        -0.456144         1.562661
