19
Iteration:    11
 O        -0.829771         0.729532        -0.076884
 C        -1.766473         0.294324         0.998955
 C        -3.181465         0.861491         0.723674
 C        -2.834981        -0.634570         0.568309
 C        -3.254015        -1.726388         1.482537
 C        -2.152756        -2.085519         2.435482
 O        -0.799789        -2.240753         2.022663
 C        -1.226436        -1.117199         2.991630
 C        -1.083073         0.205330         2.335952
 H        -0.002935         0.281287         0.146684
 H        -3.618606         1.018701         1.686225
 H        -3.361482         1.703114         0.105012
 H        -2.691589        -0.952025        -0.544115
 H        -3.936774        -1.344878         2.263157
 H        -3.778836        -2.546758         0.941742
 H        -2.409453        -2.723129         3.287671
 H        -1.177449        -1.153798         4.076799
 H        -1.472936         0.912276         3.034433
 H        -0.073044         0.508432         2.238303
