19
Iteration:  4313
 O        -1.136744         1.145667        -0.184742
 C        -1.666392         0.363898         0.915059
 C        -2.940692         0.873592         1.477648
 C        -2.865607        -0.411095         0.507777
 C        -3.135110        -1.680372         1.182415
 C        -2.327230        -2.019059         2.484004
 O        -1.085143        -2.631562         2.431627
 C        -1.259166        -1.153210         2.826380
 C        -0.624651        -0.227316         1.852862
 H        -0.298448         1.654350        -0.015108
 H        -3.154736         0.738230         2.552330
 H        -3.484829         1.674193         0.973052
 H        -3.255966        -0.154978        -0.495115
 H        -4.163441        -1.684586         1.428966
 H        -2.878826        -2.598389         0.573587
 H        -3.021606        -2.350578         3.302876
 H        -0.997929        -1.160644         3.831209
 H        -0.168629         0.599855         2.378557
 H         0.196432        -0.808126         1.386350
