19
Iteration:   700charge 0 multiplicity 1
 O        -0.825989         0.804989        -0.051857
 C        -1.713028         0.304914         1.022820
 C        -3.045676         0.842658         0.966049
 C        -2.888596        -0.628274         0.577304
 C        -3.341358        -1.757018         1.435814
 C        -2.332732        -1.996700         2.539244
 O        -0.932532        -2.234272         1.939913
 C        -1.045268        -1.255357         2.854351
 C        -0.914747         0.209329         2.327999
 H        -1.151307         0.424740        -0.889739
 H        -3.420545         1.189391         1.945094
 H        -3.260707         1.483809         0.175822
 H        -2.764872        -0.926121        -0.487277
 H        -4.377060        -1.523819         1.865618
 H        -3.543101        -2.608171         0.712701
 H        -2.737094        -2.703761         3.318459
 H        -0.514561        -1.454508         3.775483
 H        -1.427235         0.879098         3.110850
 H         0.125196         0.570424         2.396374
