19
Iteration:  3886
 O        -0.951533         0.989006        -0.089545
 C        -1.678689         0.411267         0.965098
 C        -3.102296         0.995626         1.146639
 C        -2.863137        -0.429191         0.539641
 C        -3.300305        -1.638888         1.403993
 C        -2.243767        -2.062068         2.545031
 O        -1.066833        -2.600985         2.091683
 C        -1.108685        -1.275186         2.924179
 C        -0.746928        -0.109338         2.043885
 H        -0.893001         1.915910         0.112667
 H        -3.536456         0.970719         2.116986
 H        -3.223377         1.850300         0.434506
 H        -3.196397        -0.609679        -0.483752
 H        -4.313874        -1.500245         1.822698
 H        -3.168488        -2.471042         0.719244
 H        -2.843419        -2.707380         3.230579
 H        -0.433278        -1.478265         3.749982
 H        -0.354092         0.739376         2.711824
 H         0.184481        -0.536154         1.546130
