19
Iteration:  3821charge 0 multiplicity 1
 O        -1.079495         0.987879        -0.260984
 C        -1.624072         0.354980         0.907540
 C        -3.040921         0.856504         1.402136
 C        -2.901674        -0.354136         0.550269
 C        -3.196462        -1.686827         1.216964
 C        -2.383955        -2.075727         2.374651
 O        -1.015501        -2.502629         2.262292
 C        -1.236810        -1.203838         2.958245
 C        -0.574702        -0.154937         2.107524
 H        -0.521156         1.800504        -0.147402
 H        -3.192243         0.803353         2.503187
 H        -3.224093         1.882757         0.932144
 H        -3.509652        -0.222392        -0.363133
 H        -4.254249        -1.530643         1.608781
 H        -3.166595        -2.489962         0.535178
 H        -2.986113        -2.667689         3.107334
 H        -0.831526        -1.199560         4.006519
 H        -0.253868         0.724165         2.674754
 H         0.362568        -0.609033         1.726048
