19
Iteration:  3007charge 0 multiplicity 1
 O        -1.027156         0.822883        -0.187574
 C        -1.621808         0.432977         1.012503
 C        -2.880143         1.116682         1.263566
 C        -2.939398        -0.382650         0.660144
 C        -3.311135        -1.673119         1.363826
 C        -2.339578        -2.120062         2.473004
 O        -0.961842        -2.488818         1.960681
 C        -1.117496        -1.292057         2.873763
 C        -0.843217         0.007317         2.216491
 H        -0.835952         0.039211        -0.805756
 H        -3.239749         1.112506         2.281795
 H        -3.218973         1.964349         0.615932
 H        -3.102386        -0.290890        -0.468154
 H        -4.366941        -1.707723         1.839916
 H        -3.328247        -2.544770         0.622833
 H        -2.705632        -2.957827         3.166194
 H        -0.814731        -1.587012         3.880769
 H        -0.730009         0.768398         3.045886
 H         0.205401        -0.112133         1.903719
