19
Iteration:  2600
 O        -0.992185         1.240392        -0.107786
 C        -1.657470         0.383237         0.857649
 C        -2.962669         0.824708         1.365152
 C        -2.853221        -0.421413         0.572342
 C        -3.299049        -1.758612         1.329092
 C        -2.419285        -1.943449         2.522980
 O        -1.140737        -2.609108         2.279792
 C        -1.081801        -1.283350         2.799359
 C        -0.591632        -0.116443         1.920510
 H        -0.672856         0.565180        -0.776631
 H        -3.232866         0.719387         2.454724
 H        -3.518353         1.662468         0.895025
 H        -3.263066        -0.387491        -0.477878
 H        -4.401880        -1.729958         1.579076
 H        -3.056726        -2.621234         0.669352
 H        -3.043784        -2.277329         3.275538
 H        -0.853774        -1.270940         3.922048
 H        -0.338306         0.667639         2.615865
 H         0.292921        -0.542510         1.507060
