19
Iteration:    49charge 0 multiplicity 1
 O        -0.800661         0.665360        -0.132209
 C        -1.743630         0.351939         0.903035
 C        -3.144845         0.932091         0.812374
 C        -2.827693        -0.555853         0.568986
 C        -3.232584        -1.760718         1.451197
 C        -2.215228        -2.166982         2.506648
 O        -0.791942        -2.229292         2.104149
 C        -1.209297        -1.169765         3.002371
 C        -1.109001         0.142671         2.339007
 H        -0.949896         1.609086        -0.372698
 H        -3.604906         1.232307         1.804162
 H        -3.427565         1.682735        -0.011372
 H        -2.655599        -0.858781        -0.498914
 H        -4.141960        -1.480281         1.996435
 H        -3.548675        -2.607950         0.819014
 H        -2.564517        -2.981896         3.175600
 H        -0.921720        -1.207279         4.089633
 H        -1.496871         0.942971         3.062407
 H         0.000361         0.496036         2.195375
