19
Iteration:  3969
 O        -0.901808         0.752658        -0.131961
 C        -1.728913         0.389532         1.013390
 C        -3.021455         1.017188         1.237984
 C        -3.002302        -0.379620         0.663325
 C        -3.236464        -1.713969         1.318407
 C        -2.301276        -2.033069         2.532812
 O        -1.064706        -2.571094         1.976051
 C        -1.075698        -1.304316         2.823823
 C        -0.734280         0.120798         2.150975
 H        -0.686978         1.699900         0.129780
 H        -3.436885         1.266693         2.171248
 H        -3.270270         1.842958         0.534665
 H        -3.097773        -0.429129        -0.498018
 H        -4.238705        -1.857533         1.698135
 H        -3.242073        -2.506051         0.583932
 H        -2.660339        -2.538345         3.404454
 H        -0.705659        -1.500910         3.840020
 H        -0.794494         0.871179         2.888713
 H         0.206417         0.167222         1.664143
