19
Iteration:  4700
 O        -1.115368         1.026845        -0.259596
 C        -1.565440         0.486636         0.981250
 C        -3.053136         0.981567         1.141460
 C        -2.833214        -0.378723         0.626661
 C        -3.207975        -1.671709         1.350852
 C        -2.287943        -2.131123         2.578528
 O        -1.130305        -2.672985         2.146926
 C        -1.036053        -1.384674         2.804908
 C        -0.748459         0.007857         2.173074
 H        -0.544509         1.742330         0.050452
 H        -3.483206         1.057378         2.159824
 H        -3.449707         1.607722         0.426916
 H        -2.970714        -0.420016        -0.426319
 H        -4.267259        -1.603593         1.624186
 H        -3.120978        -2.659078         0.817791
 H        -2.801240        -2.660098         3.398663
 H        -0.715917        -1.449199         3.843682
 H        -0.856927         0.821660         2.950342
 H         0.327760         0.068831         1.885941
