19
Iteration:  3051charge 0 multiplicity 1
 O        -0.859077         0.965359        -0.105359
 C        -1.628463         0.425112         0.900646
 C        -3.056804         0.941499         1.220425
 C        -2.915438        -0.523980         0.604041
 C        -3.392447        -1.622479         1.521589
 C        -2.370897        -2.075775         2.547415
 O        -1.049342        -2.458398         1.889285
 C        -1.083508        -1.333765         2.825251
 C        -0.779946        -0.009599         2.099453
 H        -0.050448         0.470553         0.232622
 H        -3.111564         0.989070         2.260910
 H        -3.433583         1.978383         0.966415
 H        -2.948323        -0.628741        -0.522113
 H        -4.295293        -1.356380         2.129807
 H        -3.728338        -2.549999         0.950337
 H        -2.757033        -2.830782         3.252758
 H        -0.529075        -1.454349         3.786588
 H        -0.732077         0.818326         2.854222
 H         0.251500        -0.063685         1.721460
