19
Iteration:    36
 O        -0.842839         0.622045        -0.090724
 C        -1.734350         0.372019         0.968538
 C        -3.142270         0.840696         0.818023
 C        -2.852964        -0.578520         0.494593
 C        -3.277894        -1.628825         1.451674
 C        -2.221610        -2.248573         2.441572
 O        -0.735464        -2.157237         2.173579
 C        -1.205814        -1.201974         2.972705
 C        -1.103515         0.217209         2.290208
 H        -0.394924         1.463323         0.102896
 H        -3.800313         1.125397         1.748277
 H        -3.338056         1.373270        -0.130723
 H        -3.073518        -0.721608        -0.455390
 H        -4.073537        -1.285389         2.112013
 H        -3.676447        -2.398483         0.836690
 H        -2.443172        -3.165088         2.977333
 H        -0.782537        -1.232466         4.009414
 H        -1.311850         1.067292         3.004435
 H         0.024976         0.160612         2.037504
