19
Iteration:   432
 O        -1.064315         1.178808        -0.251453
 C        -1.627077         0.379104         0.767929
 C        -3.056883         0.819136         1.186061
 C        -2.746897        -0.519712         0.468826
 C        -3.046727        -1.861080         1.239828
 C        -2.449119        -2.109982         2.632025
 O        -1.005711        -2.473791         2.576121
 C        -1.304187        -1.163269         2.926226
 C        -0.687545        -0.082873         1.960282
 H        -1.318476         2.083034         0.086233
 H        -3.295182         0.742469         2.191820
 H        -3.550695         1.519692         0.489911
 H        -3.177214        -0.579441        -0.586765
 H        -4.176015        -1.774916         1.375944
 H        -2.735305        -2.727772         0.636492
 H        -2.927275        -2.575901         3.412948
 H        -1.040680        -0.945841         3.947989
 H        -0.498149         0.899917         2.433893
 H         0.267140        -0.364908         1.467738
