19
Iteration:  4155
 O        -0.992691         0.856655        -0.178706
 C        -1.761348         0.346950         1.053296
 C        -3.073571         0.980611         1.267278
 C        -2.836981        -0.473766         0.580791
 C        -3.294246        -1.622229         1.319035
 C        -2.331356        -2.060933         2.527255
 O        -1.034605        -2.497046         2.078937
 C        -1.088390        -1.291387         2.770421
 C        -0.701484         0.043220         2.104716
 H        -0.297846         1.413841         0.293051
 H        -3.576309         0.949269         2.219077
 H        -3.199948         1.861546         0.681320
 H        -2.830093        -0.496665        -0.477659
 H        -4.353760        -1.538493         1.691466
 H        -3.292588        -2.427608         0.630498
 H        -2.633093        -2.568594         3.407712
 H        -0.746248        -1.460987         3.840261
 H        -0.439998         0.674928         3.026063
 H         0.252892        -0.143094         1.619338
