19
Iteration:  4882
 O        -1.062920         0.930912        -0.195068
 C        -1.609308         0.312075         0.953971
 C        -2.926895         0.905529         1.307548
 C        -2.810176        -0.407318         0.551251
 C        -3.337174        -1.648403         1.385275
 C        -2.329487        -2.129712         2.455241
 O        -1.015865        -2.481941         2.077822
 C        -1.189880        -1.249918         2.796898
 C        -0.761327         0.002607         2.173148
 H        -1.167772         1.920423        -0.106664
 H        -3.202061         0.813923         2.350550
 H        -3.229732         1.816582         0.788035
 H        -2.861629        -0.592759        -0.486821
 H        -4.053394        -1.345702         2.079299
 H        -3.589078        -2.509216         0.742031
 H        -2.664226        -2.851371         3.261455
 H        -0.712003        -1.291877         3.812550
 H        -0.562616         0.756217         2.971202
 H         0.275602        -0.230854         1.790471
