19
Iteration:  2859
 O        -0.920454         1.011997        -0.089360
 C        -1.652386         0.383036         0.902019
 C        -3.036723         1.045338         1.255842
 C        -2.984201        -0.310044         0.629171
 C        -3.243893        -1.654752         1.385082
 C        -2.329025        -2.168422         2.485601
 O        -1.017787        -2.618898         2.164970
 C        -1.126776        -1.230080         2.847670
 C        -0.760247        -0.122616         2.023149
 H        -0.799488         0.377561        -0.818902
 H        -3.235003         1.210148         2.311975
 H        -3.222681         2.034661         0.684515
 H        -3.408449        -0.391815        -0.404010
 H        -4.461046        -1.774369         1.558960
 H        -3.253492        -2.306699         0.492926
 H        -2.692938        -2.823484         3.331058
 H        -0.658557        -1.281031         3.842301
 H        -0.540441         0.812643         2.639640
 H         0.288130        -0.363338         1.632003
