19
Iteration:  3317charge 0 multiplicity 1
 O        -0.798482         0.716623        -0.113329
 C        -1.678810         0.378525         0.911417
 C        -2.984775         1.096870         1.178277
 C        -3.057015        -0.392456         0.728113
 C        -3.314808        -1.643925         1.468815
 C        -2.259069        -2.248026         2.436820
 O        -0.927547        -2.491422         1.943561
 C        -1.146479        -1.294708         2.786208
 C        -0.882574         0.107171         2.219103
 H        -1.097268         1.521190        -0.623193
 H        -3.078812         1.588973         2.135972
 H        -3.536722         1.764383         0.450047
 H        -3.189405        -0.230744        -0.312179
 H        -4.163905        -1.335159         2.069082
 H        -3.627292        -2.464629         0.704691
 H        -2.565545        -2.972778         3.231842
 H        -0.801404        -1.404888         3.827231
 H        -1.195639         0.740745         3.088950
 H         0.170892         0.225509         2.207163
