19
Iteration:   256charge 0 multiplicity 1
 O        -1.149905         1.252726        -0.138675
 C        -1.678302         0.392619         0.811503
 C        -3.080955         0.800545         1.156830
 C        -2.771576        -0.528639         0.443630
 C        -3.057836        -1.890897         1.149437
 C        -2.420003        -2.061787         2.513837
 O        -1.013780        -2.508347         2.739745
 C        -1.240546        -1.097790         2.901381
 C        -0.628357        -0.115344         1.867645
 H        -0.144549         1.206812        -0.138453
 H        -3.207130         0.859827         2.308044
 H        -3.559310         1.526175         0.528593
 H        -3.236705        -0.563441        -0.593055
 H        -4.141607        -1.801423         1.480892
 H        -3.038762        -2.815812         0.534191
 H        -3.009332        -2.580809         3.262399
 H        -1.078854        -0.674881         3.914955
 H        -0.238893         0.776992         2.310058
 H         0.203079        -0.727355         1.475827
