19
Iteration:  3289
 O        -0.842747         0.746411        -0.066084
 C        -1.737161         0.347084         1.021352
 C        -3.041185         1.043861         1.114835
 C        -2.941840        -0.393315         0.577629
 C        -3.389184        -1.568180         1.499839
 C        -2.218919        -2.131589         2.503592
 O        -0.963604        -2.407569         1.878267
 C        -1.056769        -1.358033         2.840983
 C        -0.846608        -0.006866         2.237725
 H        -1.390554         1.237250        -0.721250
 H        -3.609581         1.212081         2.050352
 H        -3.260704         1.923471         0.595432
 H        -2.778150        -0.525251        -0.546483
 H        -4.358547        -1.247043         1.963231
 H        -3.579069        -2.385726         0.877672
 H        -2.535801        -2.848434         3.254901
 H        -0.723660        -1.482789         3.881941
 H        -0.883953         0.715555         3.067888
 H         0.215249        -0.130418         1.841639
