19
Iteration:   628
 O        -0.902593         0.847339        -0.157888
 C        -1.720775         0.340948         0.912322
 C        -3.025749         0.917643         0.964156
 C        -2.918576        -0.563877         0.567690
 C        -3.226085        -1.708121         1.406150
 C        -2.194584        -2.046450         2.546059
 O        -0.903119        -2.470550         2.145020
 C        -1.099286        -1.257122         2.889639
 C        -1.057341         0.126678         2.258919
 H        -1.189810         1.787690        -0.377340
 H        -3.402079         1.399924         1.869374
 H        -3.043359         1.655344         0.129448
 H        -2.624362        -0.668623        -0.479583
 H        -4.089419        -1.415874         1.968246
 H        -3.491301        -2.609381         0.936815
 H        -2.644858        -2.738977         3.216370
 H        -0.792046        -1.333648         3.943755
 H        -1.458570         0.739913         3.079511
 H        -0.051252         0.518801         2.192860
