19
Iteration:  1976
 O        -1.090127         0.950272        -0.286457
 C        -1.538293         0.444068         0.971878
 C        -2.936158         0.969619         1.370157
 C        -2.943024        -0.336186         0.653334
 C        -3.313341        -1.677140         1.216582
 C        -2.362296        -2.058840         2.469556
 O        -1.032411        -2.636882         2.260191
 C        -1.125862        -1.264141         2.793345
 C        -0.708387        -0.034538         2.098519
 H        -0.372751         0.330297        -0.404462
 H        -3.007385         1.006918         2.500065
 H        -3.263729         1.901501         1.014931
 H        -3.199977        -0.223342        -0.347796
 H        -4.382693        -1.706958         1.484295
 H        -3.056123        -2.375028         0.437915
 H        -2.859942        -2.698030         3.216723
 H        -0.856721        -1.308395         3.841565
 H        -0.845610         0.694199         2.867551
 H         0.332982        -0.057804         1.742500
