19
Iteration:  4795charge 0 multiplicity 1
 O        -1.012977         0.879943        -0.273168
 C        -1.594277         0.465931         0.932143
 C        -3.060546         0.991686         1.275253
 C        -2.873817        -0.381212         0.614683
 C        -3.266835        -1.689395         1.418129
 C        -2.298680        -2.099253         2.494704
 O        -1.023901        -2.612180         2.066675
 C        -1.095058        -1.329470         2.853075
 C        -0.763335         0.057365         2.192948
 H        -0.585011         1.781437        -0.164173
 H        -3.416282         1.126680         2.335954
 H        -3.429390         1.714935         0.614383
 H        -3.136633        -0.334730        -0.412431
 H        -4.360012        -1.727861         1.806306
 H        -3.317203        -2.500975         0.601537
 H        -2.740967        -2.963587         3.135972
 H        -0.873172        -1.476862         3.932499
 H        -0.997120         0.724861         3.027832
 H         0.284271         0.267724         1.862860
