19
Iteration:  4998charge 0 multiplicity 1
 O        -0.958204         1.042319        -0.197813
 C        -1.638834         0.373389         0.866413
 C        -2.998628         0.850940         1.466582
 C        -2.911167        -0.433720         0.648974
 C        -3.210563        -1.768499         1.302136
 C        -2.390617        -2.052054         2.499895
 O        -1.067392        -2.498641         2.188609
 C        -1.159885        -1.228230         2.824553
 C        -0.700332        -0.094451         1.922066
 H        -0.826404         2.002009         0.079478
 H        -3.194930         0.880145         2.567965
 H        -3.440929         1.786841         0.988244
 H        -3.242083        -0.408583        -0.343987
 H        -4.300373        -1.581278         1.463956
 H        -3.061334        -2.609995         0.599293
 H        -2.989776        -2.576946         3.242870
 H        -1.015113        -1.263461         3.908701
 H        -0.284113         0.707207         2.506768
 H         0.289363        -0.315573         1.578596
