19
Iteration:   472charge 0 multiplicity 1
 O        -0.911228         1.017532        -0.110493
 C        -1.687305         0.283104         0.877320
 C        -3.126875         0.770421         1.200285
 C        -2.890283        -0.523382         0.440076
 C        -3.134998        -1.840622         1.214853
 C        -2.383398        -2.061079         2.555610
 O        -0.955098        -2.375653         2.481072
 C        -1.217847        -1.080460         2.872387
 C        -0.668559         0.045975         1.982694
 H        -1.478455         1.635348        -0.556053
 H        -3.534191         0.588496         2.206493
 H        -3.771183         1.598560         0.678631
 H        -3.107992        -0.469350        -0.680933
 H        -4.187263        -1.908131         1.463807
 H        -3.092477        -2.702680         0.558358
 H        -2.990959        -2.607913         3.371544
 H        -1.084926        -0.960717         3.944994
 H        -0.387957         0.917150         2.650970
 H         0.224120        -0.392666         1.541872
