19
Iteration:  1711charge 0 multiplicity 1
 O        -0.923225         1.277634        -0.055944
 C        -1.665255         0.424716         0.907045
 C        -3.000923         0.836018         1.310445
 C        -2.959935        -0.445776         0.592839
 C        -3.170882        -1.839729         1.222334
 C        -2.467488        -2.029892         2.498302
 O        -1.090826        -2.530085         2.470112
 C        -1.230166        -1.188175         2.819641
 C        -0.553255        -0.221160         1.799168
 H        -0.671272         0.779871        -0.873540
 H        -3.375580         0.900155         2.409353
 H        -3.197459         1.693425         0.747628
 H        -3.308979        -0.482423        -0.456292
 H        -4.239745        -1.976735         1.485460
 H        -2.983814        -2.675382         0.566571
 H        -2.924439        -2.429438         3.328382
 H        -1.043921        -0.982318         3.897744
 H        -0.051493         0.582267         2.358245
 H        -0.000861        -0.698057         0.946175
