19
Iteration:  1784
 O        -1.078345         1.112808        -0.192857
 C        -1.652213         0.450011         0.886092
 C        -2.863526         0.896981         1.442617
 C        -2.850814        -0.424770         0.629985
 C        -3.078412        -1.813933         1.155168
 C        -2.492902        -1.968228         2.457890
 O        -1.168443        -2.613095         2.512322
 C        -1.224670        -1.222958         2.802906
 C        -0.569115        -0.171432         1.824098
 H        -1.359641         2.078731        -0.278208
 H        -3.175953         0.774466         2.474636
 H        -3.280375         1.734036         1.008316
 H        -3.053098        -0.237959        -0.413701
 H        -4.161533        -2.014285         1.302431
 H        -2.787312        -2.577728         0.425510
 H        -3.140059        -2.440897         3.245418
 H        -0.934917        -1.013208         3.837303
 H        -0.123628         0.592460         2.449255
 H         0.144738        -0.748698         1.278361
