19
Iteration:  4945charge 0 multiplicity 1
 O        -1.068972         0.950459        -0.185832
 C        -1.646218         0.431139         1.008303
 C        -3.082468         1.000030         1.244307
 C        -2.887939        -0.391882         0.631132
 C        -3.215991        -1.678167         1.360928
 C        -2.293951        -2.072575         2.484416
 O        -1.032219        -2.596490         2.127164
 C        -1.103143        -1.275329         2.814919
 C        -0.704924        -0.087749         2.084328
 H        -0.477689         1.704066         0.122320
 H        -3.499319         1.133058         2.279515
 H        -3.537290         1.691982         0.493062
 H        -3.064590        -0.297452        -0.394361
 H        -4.384849        -1.648639         1.495827
 H        -3.194062        -2.580528         0.686514
 H        -2.808520        -2.631888         3.233985
 H        -0.743451        -1.332676         3.904132
 H        -0.329116         0.670076         2.796185
 H         0.274767        -0.390104         1.595517
