19
Iteration:  4362charge 0 multiplicity 1
 O        -1.015798         1.144931        -0.152565
 C        -1.668834         0.384403         0.857005
 C        -2.996606         0.925225         1.429762
 C        -2.938288        -0.348766         0.650274
 C        -3.012443        -1.754032         1.161581
 C        -2.421655        -1.974803         2.487838
 O        -1.137186        -2.672529         2.519749
 C        -1.104509        -1.278247         2.780426
 C        -0.690611        -0.218127         1.765549
 H        -0.992669         2.087274        -0.025553
 H        -3.109384         0.706793         2.528637
 H        -3.456334         1.793574         1.045828
 H        -3.531577        -0.287306        -0.286795
 H        -4.136456        -1.907728         1.293392
 H        -2.565883        -2.452691         0.435425
 H        -3.098455        -2.369409         3.244924
 H        -1.162240        -0.863314         3.859924
 H        -0.123253         0.625610         2.212132
 H         0.022541        -0.632993         1.054223
