19
Iteration:  1056charge 0 multiplicity 1
 O        -1.218655         1.246737        -0.249946
 C        -1.650192         0.411952         0.823712
 C        -2.997013         0.860020         1.392626
 C        -2.788042        -0.454110         0.434767
 C        -2.934363        -1.818868         1.065356
 C        -2.394808        -1.914329         2.529782
 O        -1.111725        -2.625459         2.739877
 C        -1.224642        -1.197436         2.988368
 C        -0.687126        -0.255696         1.756082
 H        -0.960184         2.087334         0.160662
 H        -3.226698         0.594674         2.473124
 H        -3.372874         1.751749         0.943866
 H        -3.298347        -0.360663        -0.502961
 H        -4.004077        -2.172984         0.949530
 H        -2.271247        -2.494558         0.500816
 H        -3.069092        -2.200082         3.337472
 H        -1.056090        -0.996253         3.974510
 H         0.196643         0.432059         2.051611
 H        -0.143858        -1.063924         1.214126
