19
Iteration:  4126charge 0 multiplicity 1
 O        -0.856729         0.905769        -0.183800
 C        -1.726313         0.365805         0.890533
 C        -3.027071         0.961948         1.234117
 C        -2.965138        -0.451385         0.613744
 C        -3.317592        -1.585203         1.402734
 C        -2.259666        -2.237361         2.438610
 O        -0.951078        -2.435519         2.065939
 C        -1.223778        -1.289985         2.939722
 C        -0.777309        -0.029107         2.104290
 H        -0.592241         1.752011         0.214923
 H        -3.209194         1.174138         2.275719
 H        -3.485721         1.745411         0.538257
 H        -3.381746        -0.399623        -0.356745
 H        -4.069539        -1.258486         2.085079
 H        -3.664390        -2.399452         0.647754
 H        -2.587973        -2.840735         3.378770
 H        -0.875565        -1.444139         3.963437
 H        -0.462703         0.711115         2.778684
 H         0.224342        -0.295048         1.681017
