19
Iteration:   732charge 0 multiplicity 1
 O        -0.854805         0.861440        -0.124608
 C        -1.750590         0.435524         0.901139
 C        -3.128641         0.944881         0.924667
 C        -2.838869        -0.549511         0.596387
 C        -3.164798        -1.606959         1.499242
 C        -2.265884        -2.186344         2.606915
 O        -0.909667        -2.466156         1.997325
 C        -1.153839        -1.258286         2.864241
 C        -1.029788         0.180518         2.291761
 H        -0.314339         0.040735        -0.338346
 H        -3.432901         1.152728         1.953844
 H        -3.472786         1.615789         0.188744
 H        -2.747701        -0.690318        -0.476563
 H        -4.024766        -1.313506         2.153198
 H        -3.541249        -2.461520         0.867040
 H        -2.672443        -2.903127         3.357847
 H        -0.523807        -1.513483         3.703639
 H        -1.675530         0.815320         3.013911
 H         0.036447         0.510099         2.211010
