19
Iteration:  1699charge 0 multiplicity 1
 O        -0.964118         1.235665        -0.086768
 C        -1.622216         0.394425         0.852809
 C        -3.004347         0.950048         1.340179
 C        -2.909741        -0.457565         0.506015
 C        -3.194967        -1.830232         1.200327
 C        -2.382280        -2.065722         2.553569
 O        -1.073489        -2.584697         2.467205
 C        -1.217600        -1.182329         2.814791
 C        -0.642424        -0.192115         1.890391
 H        -1.258060         0.894294        -0.924328
 H        -3.007333         0.935189         2.469247
 H        -3.498331         1.785371         0.898124
 H        -3.296798        -0.303772        -0.510017
 H        -4.283014        -1.795390         1.374132
 H        -2.953732        -2.563969         0.491472
 H        -3.009967        -2.420273         3.310610
 H        -1.201131        -0.895469         3.882764
 H         0.019064         0.510367         2.386072
 H         0.179899        -0.861290         1.468119
