19
Iteration:   368
 O        -1.018046         1.086285        -0.262898
 C        -1.676020         0.377637         0.816773
 C        -3.060073         0.794441         1.354024
 C        -2.898657        -0.482571         0.479262
 C        -2.919123        -1.917518         1.099408
 C        -2.395084        -2.021707         2.516133
 O        -1.040839        -2.449267         2.650294
 C        -1.326004        -1.078963         2.933725
 C        -0.716222        -0.062918         1.910036
 H        -0.435116         1.806190         0.001370
 H        -3.246581         0.512800         2.325210
 H        -3.747819         1.593296         1.016797
 H        -3.254881        -0.338198        -0.582718
 H        -3.981653        -2.212496         1.160923
 H        -2.382592        -2.588662         0.390659
 H        -3.148393        -2.151131         3.250394
 H        -1.376122        -0.869858         3.997915
 H        -0.124749         0.695396         2.287568
 H        -0.063912        -0.844234         1.468147
