19
Iteration:   691charge 0 multiplicity 1
 O        -0.826532         0.720518         0.043894
 C        -1.661896         0.289710         0.971507
 C        -3.150982         0.871291         0.961549
 C        -2.860986        -0.572927         0.547475
 C        -3.310479        -1.734133         1.457139
 C        -2.328460        -2.091003         2.557882
 O        -0.910217        -2.226285         1.902338
 C        -1.131859        -1.188476         2.855340
 C        -0.878684         0.232553         2.317058
 H        -1.105261         0.659831        -0.885006
 H        -3.502806         1.123655         1.952550
 H        -3.453120         1.561311         0.181221
 H        -2.844825        -0.941618        -0.512544
 H        -4.318432        -1.366655         1.826645
 H        -3.492449        -2.667404         0.869361
 H        -2.564130        -2.880123         3.342391
 H        -0.722508        -1.283087         3.800453
 H        -1.096495         1.001999         3.004276
 H         0.182881         0.294995         2.083503
