19
Iteration:  3380charge 0 multiplicity 1
 O        -0.993116         0.829452        -0.078685
 C        -1.691963         0.376292         1.063837
 C        -3.047303         0.922923         1.126877
 C        -2.850283        -0.459441         0.543751
 C        -3.380659        -1.601132         1.423146
 C        -2.309589        -2.022134         2.547268
 O        -1.020182        -2.437375         1.911131
 C        -1.068549        -1.323134         2.784342
 C        -0.712936        -0.015348         2.199488
 H        -0.247521         1.442873         0.156471
 H        -3.440080         1.027801         2.160608
 H        -3.237134         1.824767         0.400660
 H        -2.672879        -0.823858        -0.446595
 H        -4.215628        -1.294331         2.064685
 H        -3.803287        -2.518421         1.102472
 H        -2.807877        -2.815594         3.107348
 H        -0.633809        -1.344544         3.873621
 H        -0.972353         0.815374         2.918595
 H         0.380413        -0.035764         1.883780
