19
Iteration:  4350charge 0 multiplicity 1
 O        -0.991997         1.066046        -0.122651
 C        -1.727220         0.477653         0.891582
 C        -2.991870         0.930437         1.506326
 C        -2.949827        -0.341567         0.532765
 C        -3.134865        -1.786515         1.172329
 C        -2.328334        -2.020552         2.450839
 O        -1.072639        -2.637697         2.491529
 C        -1.227812        -1.162168         2.815631
 C        -0.615483        -0.263143         1.747173
 H        -0.918312         2.003762         0.240487
 H        -3.263049         0.944681         2.568441
 H        -3.524311         1.677898         0.929809
 H        -3.366041        -0.202385        -0.478078
 H        -4.176560        -2.195974         1.283480
 H        -2.743979        -2.470838         0.380469
 H        -2.950222        -2.072965         3.370419
 H        -0.905544        -1.026763         3.939112
 H         0.042425         0.458360         2.221182
 H        -0.052897        -0.890323         1.068092
