19
Iteration:  2319charge 0 multiplicity 1
 O        -0.837403         0.690110        -0.175242
 C        -1.626240         0.420637         1.016776
 C        -3.021941         1.047147         1.252047
 C        -2.921127        -0.320628         0.763105
 C        -3.312419        -1.611731         1.473919
 C        -2.316950        -2.129256         2.481367
 O        -0.985256        -2.409937         1.894410
 C        -1.148974        -1.413095         2.765820
 C        -0.870055         0.038087         2.161152
 H        -1.463903         0.857900        -0.893240
 H        -3.255006         1.489275         2.210312
 H        -3.207583         1.904431         0.527464
 H        -3.062267        -0.511562        -0.323443
 H        -4.293080        -1.463547         2.030013
 H        -3.443661        -2.443124         0.673730
 H        -2.722075        -2.928537         3.274024
 H        -0.574756        -1.521239         3.685322
 H        -0.996246         0.699105         3.028807
 H         0.206326         0.147121         2.119925
