19
Iteration:  2783
 O        -0.990046         1.153517        -0.094104
 C        -1.635783         0.383743         0.888988
 C        -2.940468         0.913235         1.366032
 C        -2.918927        -0.432399         0.561226
 C        -3.287078        -1.766931         1.328336
 C        -2.461015        -2.003547         2.513594
 O        -1.022445        -2.558308         2.265456
 C        -1.142681        -1.275762         2.833657
 C        -0.692530        -0.172518         1.891822
 H        -0.298563         0.607230        -0.473228
 H        -3.087786         1.226085         2.452963
 H        -3.292728         1.785974         0.805328
 H        -3.163850        -0.255185        -0.531989
 H        -4.342752        -1.771821         1.464576
 H        -3.311490        -2.585998         0.617204
 H        -2.999808        -2.482570         3.396511
 H        -0.763599        -1.139148         3.876917
 H        -0.463807         0.657688         2.612547
 H         0.266405        -0.221366         1.256261
