19
Iteration:   592charge 0 multiplicity 1
 O        -0.900875         0.827421        -0.150469
 C        -1.718414         0.423858         1.038800
 C        -3.197336         0.776902         0.995205
 C        -2.760343        -0.558185         0.552924
 C        -3.183858        -1.786938         1.414112
 C        -2.318107        -2.041664         2.574529
 O        -1.037131        -2.398640         2.063391
 C        -1.148320        -1.142922         2.885672
 C        -0.850397         0.194501         2.180190
 H        -0.184300         1.348762         0.318139
 H        -3.644098         0.919936         2.006118
 H        -3.466850         1.529160         0.287263
 H        -2.579418        -0.754940        -0.537442
 H        -4.216071        -1.582953         1.754219
 H        -3.284517        -2.672480         0.775594
 H        -2.630561        -2.791460         3.375832
 H        -0.721167        -1.194594         3.861812
 H        -0.909132         0.994183         2.847298
 H         0.167059         0.048710         1.818744
