19
Iteration:  1095
 O        -1.035541         1.229589        -0.084411
 C        -1.703964         0.400647         0.827912
 C        -3.020543         0.741880         1.403911
 C        -2.818644        -0.501035         0.489293
 C        -3.121074        -1.937715         1.138833
 C        -2.414800        -1.902137         2.442697
 O        -1.074679        -2.515379         2.725931
 C        -1.196783        -1.085110         2.786850
 C        -0.628974        -0.222931         1.709126
 H        -0.601641         1.966203         0.425663
 H        -3.333949         0.706484         2.459801
 H        -3.562346         1.520574         0.819821
 H        -3.177851        -0.423328        -0.560046
 H        -4.132335        -2.233399         1.376559
 H        -2.665456        -2.689735         0.452317
 H        -3.189520        -2.220003         3.161433
 H        -1.141658        -0.578338         3.848367
 H         0.007754         0.525782         2.076310
 H        -0.179524        -0.828405         0.925012
