19
Iteration:  4451charge 0 multiplicity 1
 O        -0.981972         1.140667        -0.059953
 C        -1.727918         0.398028         0.821938
 C        -2.966088         0.895341         1.426876
 C        -2.939771        -0.362516         0.573508
 C        -3.126720        -1.779718         1.172604
 C        -2.317957        -2.020946         2.495265
 O        -1.079767        -2.568005         2.450563
 C        -1.182572        -1.191287         2.834429
 C        -0.752809        -0.277368         1.733487
 H        -0.211709         1.571696         0.294268
 H        -3.081511         0.866129         2.496473
 H        -3.538727         1.698854         0.890126
 H        -3.613082        -0.085588        -0.273841
 H        -4.231428        -2.030144         1.290450
 H        -2.738993        -2.555964         0.502942
 H        -2.871212        -2.236528         3.370025
 H        -0.891620        -0.992635         3.888802
 H        -0.273427         0.606862         2.185988
 H         0.005124        -0.851139         1.230749
