19
Iteration:  4015charge 0 multiplicity 1
 O        -0.989912         0.956785        -0.220399
 C        -1.604730         0.342009         0.909019
 C        -2.955621         1.005402         1.178470
 C        -2.865525        -0.433153         0.590016
 C        -3.339210        -1.620414         1.526013
 C        -2.379426        -2.181679         2.475523
 O        -0.866519        -2.448471         2.003546
 C        -1.225719        -1.350391         2.851905
 C        -0.858085        -0.005511         2.205311
 H        -0.133804         1.376957         0.064937
 H        -3.325420         1.108062         2.204178
 H        -3.284284         1.824090         0.626047
 H        -3.218986        -0.622527        -0.404039
 H        -4.153216        -1.326930         2.181719
 H        -3.864355        -2.527063         1.068407
 H        -2.806544        -3.027007         3.071074
 H        -0.744167        -1.388719         3.799997
 H        -0.758843         0.795940         2.920184
 H         0.139857        -0.328633         1.905090
