19
Iteration:  1326
 O        -0.860083         0.763720        -0.127188
 C        -1.639305         0.346415         1.023432
 C        -3.024303         0.918361         1.145779
 C        -2.859422        -0.568740         0.597936
 C        -3.301375        -1.727555         1.344737
 C        -2.324614        -2.053886         2.472675
 O        -0.982755        -2.344300         1.998823
 C        -1.176119        -1.178608         2.866155
 C        -0.863676         0.176934         2.298249
 H        -1.470641         0.840236        -0.897295
 H        -3.317791         1.115809         2.188434
 H        -3.409917         1.700406         0.433359
 H        -2.980299        -0.665328        -0.499331
 H        -4.299182        -1.810825         1.638262
 H        -3.229733        -2.706843         0.837229
 H        -2.511061        -2.835850         3.130048
 H        -0.702445        -1.413350         3.867546
 H        -1.139095         0.897339         3.113242
 H         0.223962         0.306869         2.070085
