19
Iteration:  2150charge 0 multiplicity 1
 O        -0.925714         0.721133        -0.131214
 C        -1.629716         0.389738         0.979945
 C        -2.934360         1.057485         1.267324
 C        -2.928835        -0.367169         0.710961
 C        -3.383866        -1.672463         1.457931
 C        -2.259081        -2.153590         2.398017
 O        -0.990323        -2.454344         1.923962
 C        -1.187408        -1.260884         2.816758
 C        -0.748460         0.021867         2.200141
 H        -1.446822         0.545448        -0.958505
 H        -3.265670         1.300405         2.332112
 H        -3.174001         2.048914         0.691144
 H        -3.019097        -0.344232        -0.454147
 H        -4.306028        -1.297694         2.045812
 H        -3.663570        -2.440970         0.732282
 H        -2.731889        -2.911367         3.033451
 H        -0.778441        -1.400416         3.840213
 H        -1.038180         0.838741         2.908698
 H         0.354152         0.296213         1.984248
