19
Iteration:  2243charge 0 multiplicity 1
 O        -0.955837         0.933374        -0.214471
 C        -1.605119         0.338861         1.069828
 C        -3.001204         0.911523         1.127104
 C        -2.848994        -0.491971         0.645730
 C        -3.294610        -1.509267         1.594753
 C        -2.315020        -2.152868         2.515945
 O        -1.170088        -2.420268         1.810936
 C        -1.140877        -1.379522         2.836057
 C        -0.772553         0.056104         2.225546
 H         0.017247         0.834083        -0.131484
 H        -3.421526         1.225475         2.123355
 H        -3.190096         1.837648         0.592512
 H        -2.991156        -0.712730        -0.386771
 H        -4.010971        -1.140138         2.364956
 H        -3.855100        -2.285833         0.949401
 H        -2.667064        -3.173007         3.047983
 H        -0.459397        -1.504137         3.660465
 H        -0.466708         0.781094         3.051566
 H         0.194517        -0.252123         1.807790
