19
Iteration:  3177charge 0 multiplicity 1
 O        -0.996119         0.777215        -0.174260
 C        -1.614793         0.350515         0.993350
 C        -2.973600         1.073611         1.263693
 C        -2.884941        -0.343521         0.711965
 C        -3.339187        -1.643497         1.384412
 C        -2.291397        -2.163409         2.400078
 O        -1.004929        -2.425539         1.907883
 C        -1.177074        -1.259219         2.943941
 C        -0.839821         0.012998         2.183600
 H        -0.148909         0.251163        -0.276548
 H        -3.338081         1.140725         2.311880
 H        -3.206239         1.974307         0.557436
 H        -3.097006        -0.422449        -0.395451
 H        -4.225075        -1.398427         1.985951
 H        -3.554864        -2.521474         0.737361
 H        -2.530787        -3.039976         3.158869
 H        -0.597892        -1.673316         3.723076
 H        -0.701062         0.956821         2.757395
 H         0.264705        -0.128675         1.938506
