19
Iteration:  4100
 O        -0.949697         0.891939        -0.174689
 C        -1.613193         0.455784         0.917047
 C        -2.917390         1.018154         1.153122
 C        -2.911360        -0.415615         0.680313
 C        -3.379717        -1.691988         1.421177
 C        -2.315874        -2.153560         2.495220
 O        -0.931834        -2.518146         2.045448
 C        -1.191627        -1.360885         2.831646
 C        -0.831931        -0.019928         2.145241
 H        -1.101777         1.854745        -0.276529
 H        -3.182897         1.147038         2.215347
 H        -3.251311         1.801873         0.553492
 H        -3.053232        -0.516037        -0.426394
 H        -4.293075        -1.506353         2.058113
 H        -3.484325        -2.449232         0.709359
 H        -2.605821        -2.660831         3.395304
 H        -0.768672        -1.390142         3.899125
 H        -1.071154         0.707787         3.008153
 H         0.259897         0.128585         2.013028
