19
Iteration:  2008
 O        -0.969328         0.943613        -0.169430
 C        -1.672673         0.358591         0.956964
 C        -2.965699         0.942085         1.294635
 C        -2.900440        -0.406320         0.626170
 C        -3.317661        -1.678089         1.362679
 C        -2.325293        -2.019487         2.493102
 O        -1.107742        -2.459258         2.055632
 C        -1.169177        -1.280580         2.908038
 C        -0.698022        -0.110231         2.010733
 H        -0.037796         1.217587         0.094748
 H        -3.038848         1.013577         2.446734
 H        -3.331334         1.753048         0.725252
 H        -3.303439        -0.543877        -0.313152
 H        -4.347964        -1.576761         1.754122
 H        -3.171307        -2.566991         0.785071
 H        -2.638637        -2.745194         3.237625
 H        -0.658153        -1.233190         3.871340
 H        -0.514520         0.690240         2.674035
 H         0.257366        -0.336276         1.526177
