19
Iteration:  3579charge 0 multiplicity 1
 O        -1.012160         1.220516        -0.146060
 C        -1.635624         0.359072         0.858930
 C        -3.051374         0.787183         1.389934
 C        -2.894952        -0.378200         0.526177
 C        -3.212289        -1.816155         1.261951
 C        -2.459305        -1.909398         2.582093
 O        -1.101752        -2.554993         2.305699
 C        -1.148804        -1.274810         2.846517
 C        -0.568532        -0.199402         1.859931
 H        -0.266664         1.688269         0.278394
 H        -3.354157         0.672334         2.393741
 H        -3.532769         1.638916         0.859731
 H        -2.998327        -0.379873        -0.638690
 H        -4.321158        -1.800590         1.625051
 H        -2.972008        -2.636760         0.605884
 H        -3.049618        -2.254095         3.438072
 H        -0.740673        -1.206927         3.932422
 H        -0.177871         0.617182         2.515913
 H         0.282950        -0.709818         1.345070
