19
Iteration:   873
 O        -0.921348         0.811132        -0.213035
 C        -1.675409         0.400692         0.980518
 C        -3.125164         1.020502         1.102680
 C        -2.838936        -0.445493         0.593860
 C        -3.324377        -1.756506         1.356044
 C        -2.319400        -2.165345         2.427215
 O        -0.852713        -2.451605         2.224654
 C        -1.241722        -1.221536         2.923411
 C        -0.783705         0.090681         2.144755
 H        -1.099448         1.785791        -0.336437
 H        -3.368658         1.189504         2.118590
 H        -3.496161         1.802298         0.383475
 H        -2.736983        -0.666610        -0.487167
 H        -4.134325        -1.574804         2.062442
 H        -3.695868        -2.600813         0.732884
 H        -2.580914        -2.967504         3.104366
 H        -0.879440        -1.338724         4.104569
 H        -0.682441         0.873097         2.905021
 H         0.174999        -0.243080         1.699072
