19
Iteration:   204charge 0 multiplicity 1
 O        -0.965127         0.940267        -0.096348
 C        -1.714119         0.287189         0.916339
 C        -3.070028         0.830590         1.201460
 C        -2.878989        -0.535887         0.517173
 C        -3.015299        -1.902013         1.118959
 C        -2.396557        -1.968152         2.499117
 O        -1.058535        -2.415907         2.440094
 C        -1.204782        -1.035081         2.944794
 C        -0.699711         0.045055         2.034259
 H        -1.573089         1.382163        -0.732393
 H        -3.509546         0.770249         2.205438
 H        -3.390426         1.626015         0.613539
 H        -3.146801        -0.558887        -0.634125
 H        -4.021719        -2.233407         1.155988
 H        -2.349750        -2.542509         0.498774
 H        -2.955518        -2.342383         3.345306
 H        -1.113492        -0.867874         4.006199
 H        -0.718694         1.015916         2.526630
 H         0.318708        -0.207976         1.561193
