19
Iteration:  1754charge 0 multiplicity 1
 O        -1.142484         1.226869        -0.187391
 C        -1.618214         0.407270         0.886027
 C        -2.979169         0.780783         1.367108
 C        -2.866814        -0.409136         0.471867
 C        -3.131879        -1.699062         1.183857
 C        -2.425274        -1.887820         2.543797
 O        -1.196675        -2.681417         2.523757
 C        -1.099845        -1.255647         2.878343
 C        -0.572303        -0.214194         1.834911
 H        -0.299926         1.623253         0.046863
 H        -3.618622         0.503641         2.300186
 H        -3.361930         1.679839         0.978403
 H        -3.070526        -0.226192        -0.611006
 H        -4.217733        -1.937142         1.225382
 H        -2.801979        -2.470578         0.539592
 H        -3.074516        -2.243485         3.314449
 H        -0.647624        -1.128302         3.876780
 H        -0.115242         0.596503         2.390800
 H         0.347923        -0.696913         1.390983
