19
Iteration:  3391charge 0 multiplicity 1
 O        -0.951079         0.918677        -0.110388
 C        -1.651963         0.428598         1.007219
 C        -3.068361         0.902837         1.107298
 C        -2.797182        -0.506046         0.564995
 C        -3.360114        -1.601488         1.523115
 C        -2.384558        -2.117962         2.550780
 O        -1.018072        -2.436354         1.949442
 C        -1.091615        -1.343510         2.779016
 C        -0.782181        -0.020895         2.146790
 H        -0.174299         1.323160         0.274976
 H        -3.424370         0.980426         2.156618
 H        -3.535805         1.716089         0.450771
 H        -2.842851        -0.577210        -0.507298
 H        -4.188097        -1.084735         1.991985
 H        -3.677564        -2.295088         0.822532
 H        -2.516933        -2.650390         3.461801
 H        -0.712473        -1.554555         3.849664
 H        -0.644123         0.652172         3.036515
 H         0.255654        -0.037634         1.692315
