19
Iteration:  4578
 O        -1.054688         1.045457        -0.180967
 C        -1.697085         0.425510         0.927972
 C        -3.169773         0.944859         1.243245
 C        -2.877171        -0.343985         0.576418
 C        -3.190923        -1.668196         1.280195
 C        -2.315496        -2.034346         2.448597
 O        -1.051296        -2.654045         2.299698
 C        -1.086087        -1.332260         2.923849
 C        -0.599581        -0.150350         2.026264
 H        -0.464158         1.762057         0.050090
 H        -3.419317         1.029157         2.256139
 H        -3.228709         1.764047         0.497940
 H        -3.179724        -0.331587        -0.495425
 H        -4.230580        -1.603742         1.617705
 H        -3.086281        -2.508060         0.545578
 H        -2.978740        -2.503066         3.272367
 H        -1.007128        -1.221908         4.032756
 H        -0.280031         0.679956         2.751968
 H         0.204266        -0.339562         1.272229
