19
Iteration:  1791
 O        -1.019068         1.112266        -0.200897
 C        -1.610306         0.431093         0.897187
 C        -2.853518         0.898634         1.505432
 C        -2.895559        -0.381665         0.603745
 C        -3.160148        -1.800048         1.088637
 C        -2.426459        -2.015429         2.522908
 O        -1.149555        -2.589922         2.501160
 C        -1.224460        -1.170890         2.825471
 C        -0.640712        -0.205564         1.827418
 H        -1.538839         1.898395        -0.481270
 H        -3.191708         0.638159         2.471272
 H        -3.396177         1.701919         0.882085
 H        -3.195773        -0.339564        -0.429552
 H        -4.227300        -2.017528         1.175219
 H        -2.536499        -2.518227         0.457516
 H        -3.075376        -2.549792         3.249519
 H        -0.956918        -1.009577         3.869242
 H        -0.104135         0.614364         2.423936
 H         0.057673        -0.755098         1.157684
