19
Iteration:  2322
 O        -0.853251         0.689683        -0.186124
 C        -1.615549         0.420490         1.049147
 C        -2.998148         1.040323         1.244621
 C        -2.905993        -0.332406         0.758134
 C        -3.354352        -1.624867         1.469291
 C        -2.340951        -2.147037         2.493406
 O        -0.976062        -2.418583         1.865618
 C        -1.139684        -1.360126         2.777878
 C        -0.841623         0.035384         2.192190
 H        -1.394641         0.968233        -0.926178
 H        -3.281307         1.425636         2.256658
 H        -3.212526         1.796482         0.408117
 H        -3.194654        -0.474614        -0.342053
 H        -4.290024        -1.534173         2.028531
 H        -3.486965        -2.381671         0.635172
 H        -2.706106        -2.898161         3.232040
 H        -0.624913        -1.539339         3.764316
 H        -0.991707         0.857090         2.988919
 H         0.221135         0.147209         2.077316
