19
Iteration:  2921
 O        -1.081136         1.045047        -0.115435
 C        -1.614888         0.388345         0.985163
 C        -2.992265         0.877405         1.212530
 C        -2.705778        -0.551945         0.599336
 C        -3.391857        -1.612886         1.435184
 C        -2.351291        -1.997379         2.594639
 O        -1.137150        -2.460004         1.938107
 C        -1.115100        -1.372437         2.826588
 C        -0.660969        -0.034315         2.118602
 H        -0.189774         0.703908        -0.300472
 H        -3.204780         1.018086         2.279946
 H        -3.151425         1.772161         0.636376
 H        -2.964513        -0.648712        -0.514805
 H        -4.292763        -1.292036         1.830860
 H        -3.594917        -2.549810         0.842869
 H        -2.964253        -2.664516         3.310821
 H        -0.571361        -1.369740         3.748803
 H        -0.443456         0.656993         2.959567
 H         0.250564        -0.251387         1.589798
