19
Iteration:  1162
 O        -1.094348         1.051704        -0.323838
 C        -1.669544         0.482258         0.905525
 C        -2.988392         0.967151         1.352688
 C        -2.810626        -0.444326         0.588251
 C        -3.061367        -1.891433         1.141200
 C        -2.348388        -2.125655         2.452516
 O        -1.041467        -2.640925         2.618724
 C        -1.294056        -1.155319         2.843229
 C        -0.680628         0.004517         1.926451
 H        -0.844996         1.956123        -0.121303
 H        -3.308767         1.196963         2.414325
 H        -3.531132         1.706588         0.782823
 H        -3.245695        -0.251044        -0.382858
 H        -4.145831        -2.033849         1.230469
 H        -2.759486        -2.768240         0.532666
 H        -2.968470        -2.578610         3.231789
 H        -1.193815        -0.983563         3.948270
 H        -0.285063         0.768899         2.538243
 H         0.095998        -0.545260         1.412705
