19
Iteration:    95charge 0 multiplicity 1
 O        -0.754831         0.900238         0.003607
 C        -1.750686         0.405074         0.917858
 C        -3.225787         0.825486         0.912011
 C        -2.728993        -0.630406         0.477590
 C        -3.203444        -1.817268         1.452487
 C        -2.317002        -1.973013         2.592147
 O        -0.968901        -2.362474         2.118265
 C        -1.094202        -1.128484         2.884955
 C        -0.991592         0.127083         2.226312
 H        -0.928946         0.516307        -0.905040
 H        -3.744744         0.805256         1.864413
 H        -3.743853         1.418313         0.119854
 H        -2.800310        -0.888812        -0.707653
 H        -4.283192        -1.793581         1.690635
 H        -3.096258        -2.828073         0.938708
 H        -2.782710        -2.608854         3.392943
 H        -0.592661        -1.203688         3.864299
 H        -1.407227         0.962103         2.914948
 H         0.117460         0.415592         2.139640
