19
Iteration:  1172charge 0 multiplicity 1
 O        -1.018879         1.053598        -0.325251
 C        -1.672114         0.413862         0.843847
 C        -3.017887         0.936568         1.337915
 C        -2.889481        -0.411171         0.631395
 C        -3.092065        -1.788742         1.143081
 C        -2.362960        -2.134276         2.502872
 O        -0.951961        -2.564468         2.572316
 C        -1.318249        -1.199302         2.898796
 C        -0.715995        -0.087823         1.921670
 H        -0.838323         1.971309        -0.037154
 H        -3.163320         0.820258         2.478827
 H        -3.609790         1.618117         0.768295
 H        -3.019025        -0.499978        -0.435348
 H        -4.108451        -2.000767         1.464432
 H        -2.747089        -2.335651         0.213468
 H        -3.050338        -2.606384         3.217387
 H        -1.385373        -0.889574         4.031414
 H        -0.495972         0.788155         2.488093
 H         0.182587        -0.353335         1.326074
