19
Iteration:   200charge 0 multiplicity 1
 O        -0.942881         0.909071        -0.086259
 C        -1.694913         0.284010         0.921992
 C        -3.071689         0.817746         1.199510
 C        -2.905610        -0.530140         0.515218
 C        -2.996378        -1.916863         1.134964
 C        -2.399058        -1.928956         2.508499
 O        -1.047885        -2.429756         2.427025
 C        -1.193515        -1.021442         2.887277
 C        -0.743472         0.061575         2.048317
 H        -1.652930         1.411557        -0.551825
 H        -3.570787         0.738357         2.194168
 H        -3.370307         1.789394         0.626533
 H        -3.070399        -0.558067        -0.520509
 H        -4.071931        -2.279194         1.152361
 H        -2.358208        -2.490483         0.468476
 H        -3.044357        -2.369722         3.309119
 H        -1.057807        -0.888479         3.995373
 H        -0.691779         1.054401         2.489822
 H         0.205705        -0.178464         1.624851
