19
Iteration:  2009
 O        -0.957361         0.945148        -0.161805
 C        -1.674064         0.355564         0.963286
 C        -2.972864         0.938237         1.290630
 C        -2.904152        -0.402098         0.632421
 C        -3.322422        -1.679697         1.367238
 C        -2.334186        -2.022086         2.493821
 O        -1.102878        -2.458106         2.052621
 C        -1.172037        -1.277161         2.904224
 C        -0.696836        -0.106593         2.004346
 H        -0.052470         1.260806         0.055414
 H        -3.038156         1.013606         2.409913
 H        -3.333392         1.731964         0.703861
 H        -3.278503        -0.543612        -0.345256
 H        -4.336926        -1.585100         1.758443
 H        -3.215145        -2.600078         0.794040
 H        -2.636208        -2.767871         3.271095
 H        -0.622425        -1.217074         3.830259
 H        -0.462504         0.687027         2.687980
 H         0.252775        -0.352484         1.519504
