19
Iteration:  1634charge 0 multiplicity 1
 O         0.392418         0.737662         0.071594
 C        -0.835587         1.002133         0.656904
 C        -1.268086         0.914990         2.117167
 C        -2.561232         1.350542         1.402973
 O        -3.852364         1.677397         1.911287
 C        -2.068243         0.247753         0.233033
 C        -2.438514         0.584272        -1.206983
 C        -2.254506         2.187002        -1.079199
 C        -1.692083         2.314902         0.405241
 H         1.030272         0.474670         0.805345
 H        -1.276440        -0.192789         2.512279
 H        -0.729507         1.659567         2.700102
 H        -4.021594         1.032241         2.547562
 H        -2.141797        -0.746959         0.446091
 H        -1.788654         0.200006        -2.004027
 H        -3.453843         0.288765        -1.433025
 H        -1.517174         2.584524        -1.763504
 H        -3.141539         2.815060        -1.328795
 H        -1.189771         3.207689         0.748624
