19
Iteration:  3026
 O         0.426678         0.789464         0.176580
 C        -0.890731         0.880406         0.653719
 C        -1.217137         0.941160         2.145934
 C        -2.512626         1.365569         1.327533
 O        -3.827932         1.611396         1.812354
 C        -2.099443         0.151943         0.233767
 C        -2.465860         0.695380        -1.104568
 C        -2.244061         2.233242        -0.976650
 C        -1.665490         2.252461         0.450392
 H         0.549508         0.567218        -0.751424
 H        -1.348700         0.106688         2.821352
 H        -0.684559         1.757696         2.641014
 H        -4.556092         1.412858         1.126048
 H        -2.285925        -0.931010         0.369727
 H        -1.809274         0.356046        -1.893686
 H        -3.499923         0.521347        -1.485529
 H        -1.597277         2.718146        -1.681305
 H        -3.110375         2.823946        -1.093640
 H        -1.091996         3.185582         0.686999
