19
Iteration:  2855charge 0 multiplicity 1
 O         0.486959         0.724365         0.152065
 C        -0.801837         1.021370         0.694186
 C        -1.210340         0.972244         2.236572
 C        -2.562608         1.337834         1.252587
 O        -3.787235         1.663292         1.784283
 C        -2.114862         0.202838         0.251469
 C        -2.500738         0.651329        -1.218400
 C        -2.293792         2.178682        -0.994361
 C        -1.671350         2.287164         0.458361
 H         0.403019         0.308162        -0.692606
 H        -1.283005        -0.038783         2.623763
 H        -0.863274         1.784383         2.870184
 H        -4.521466         0.957965         2.035390
 H        -2.234060        -0.851176         0.580810
 H        -1.733421         0.134958        -1.878947
 H        -3.513086         0.314525        -1.335355
 H        -1.695235         2.601246        -1.820750
 H        -3.298526         2.695863        -1.103275
 H        -1.581300         3.256362         0.887409
