19
Iteration:  3989charge 0 multiplicity 1
 O         0.527707         0.741141         0.220365
 C        -0.800629         1.061911         0.659798
 C        -1.211641         0.939274         2.103804
 C        -2.577582         1.295855         1.321840
 O        -3.868765         1.462394         1.871502
 C        -2.234421         0.267458         0.272820
 C        -2.566465         0.713038        -1.133029
 C        -2.107236         2.234307        -1.095871
 C        -1.684624         2.283678         0.395623
 H         0.366774        -0.062547        -0.229681
 H        -1.133035        -0.083419         2.576047
 H        -0.636233         1.687681         2.648819
 H        -4.266667         2.329072         1.660497
 H        -2.310841        -0.784630         0.579540
 H        -2.001096        -0.017819        -1.793847
 H        -3.507377         0.554680        -1.703906
 H        -1.288975         2.555062        -1.756159
 H        -2.961942         2.928601        -1.350040
 H        -1.611044         3.262856         0.918859
