19
Iteration:  2346
 O         0.527821         0.871009         0.207274
 C        -0.781823         0.969718         0.652409
 C        -1.251977         0.851265         2.196492
 C        -2.487511         1.318008         1.379620
 O        -3.814993         1.738909         1.740164
 C        -2.114492         0.191754         0.202498
 C        -2.644334         0.676416        -1.204733
 C        -2.338362         2.205794        -1.026982
 C        -1.615136         2.179654         0.394552
 H         0.923699        -0.070714         0.394975
 H        -1.462596        -0.231475         2.505318
 H        -0.759251         1.507085         2.943589
 H        -4.235151         1.120138         2.328014
 H        -2.220322        -0.914476         0.305898
 H        -1.947496         0.279456        -2.012255
 H        -3.667841         0.395099        -1.453437
 H        -1.720703         2.650040        -1.800253
 H        -3.292419         2.789991        -0.881107
 H        -1.215555         3.194824         0.691298
