19
Iteration:   429charge 0 multiplicity 1
 O         0.456327         0.560103         0.104848
 C        -0.766216         0.992211         0.649114
 C        -1.194695         0.995791         2.102783
 C        -2.519558         1.357391         1.269105
 O        -3.925702         1.549517         1.725085
 C        -1.990154         0.189603         0.227083
 C        -2.558713         0.714520        -1.142686
 C        -2.268925         2.252282        -0.897511
 C        -1.734410         2.308142         0.460224
 H         0.968164         1.111987         0.664808
 H        -1.166772        -0.049171         2.403040
 H        -0.662037         1.742012         2.715535
 H        -3.900656         2.002512         2.494441
 H        -2.263859        -0.838087         0.579943
 H        -2.076048         0.427024        -2.098771
 H        -3.601608         0.462360        -1.092474
 H        -1.668447         2.715755        -1.708719
 H        -3.196353         2.885246        -0.796213
 H        -1.532518         3.228800         0.840796
