19
Iteration:  1954
 O         0.395835         0.851266         0.115097
 C        -0.885959         0.983685         0.641793
 C        -1.280986         0.842779         2.121775
 C        -2.547037         1.375045         1.430936
 O        -3.841331         1.711739         1.901968
 C        -2.090460         0.218545         0.217757
 C        -2.449258         0.614188        -1.233810
 C        -2.249946         2.141876        -1.076881
 C        -1.608338         2.262662         0.371153
 H         0.800889         0.013263         0.306696
 H        -1.271727        -0.146985         2.500629
 H        -1.023161         1.665452         2.697993
 H        -4.141165         0.993465         2.565802
 H        -2.092448        -0.818169         0.530504
 H        -1.569123         0.224149        -1.788929
 H        -3.492582         0.387860        -1.563196
 H        -1.436423         2.554250        -1.661156
 H        -3.095918         2.807906        -0.979571
 H        -1.212435         3.233288         0.751464
