19
Iteration:  3064charge 0 multiplicity 1
 O         0.522676         0.628593         0.319080
 C        -0.773597         1.052038         0.620783
 C        -1.298021         0.947666         2.117882
 C        -2.529893         1.250753         1.316449
 O        -3.823041         1.560581         1.880355
 C        -2.131724         0.248847         0.201238
 C        -2.594252         0.764733        -1.121793
 C        -2.217260         2.260686        -1.042020
 C        -1.695527         2.353358         0.295886
 H         0.583042         0.657584        -0.711549
 H        -1.182764        -0.087557         2.581306
 H        -0.957255         1.754176         2.814915
 H        -4.199282         0.733156         1.997865
 H        -1.981248        -0.838397         0.359048
 H        -2.010240         0.267904        -1.967795
 H        -3.643483         0.528566        -1.311873
 H        -1.371620         2.342991        -1.811080
 H        -3.144382         2.924238        -1.189942
 H        -1.401848         3.331018         0.709061
