19
Iteration:  1182
 O         0.469466         0.682661         0.178750
 C        -0.830679         0.960906         0.634131
 C        -1.292489         0.887719         2.173865
 C        -2.472961         1.268333         1.286262
 O        -3.705982         1.644504         1.729204
 C        -2.102092         0.178669         0.212024
 C        -2.643015         0.755609        -1.094189
 C        -2.232007         2.271043        -1.011251
 C        -1.709539         2.280300         0.443881
 H         0.916521         1.559814         0.049302
 H        -1.338507        -0.104329         2.602684
 H        -0.852326         1.661805         2.766764
 H        -4.203991         0.750766         1.977658
 H        -2.298595        -0.789646         0.580684
 H        -2.269144         0.206118        -2.030989
 H        -3.713120         0.598759        -0.987379
 H        -1.543658         2.608015        -1.882541
 H        -3.131199         2.988672        -1.059713
 H        -1.382046         3.226230         1.026177
