19
Iteration:  2901
 O         0.561988         0.781767         0.224709
 C        -0.782564         1.019185         0.710386
 C        -1.217461         0.896311         2.129388
 C        -2.504767         1.264333         1.320873
 O        -3.786357         1.694071         1.766618
 C        -2.131254         0.253050         0.292001
 C        -2.640393         0.645332        -1.185875
 C        -2.203167         2.179047        -1.032472
 C        -1.789938         2.246405         0.400706
 H         0.408050         0.735054        -0.709965
 H        -1.181165        -0.087171         2.594022
 H        -0.943007         1.767004         2.687316
 H        -4.304253         0.822099         1.832076
 H        -2.277123        -0.772156         0.615853
 H        -2.160098        -0.041582        -1.902449
 H        -3.720377         0.559041        -1.166944
 H        -1.418411         2.498577        -1.658683
 H        -3.098219         2.810519        -1.236075
 H        -1.472017         3.233558         0.779864
