19
Iteration:  3439charge 0 multiplicity 1
 O         0.400425         0.657775         0.194799
 C        -0.858200         0.993014         0.610777
 C        -1.219574         0.991661         2.096804
 C        -2.490019         1.298188         1.360151
 O        -3.798255         1.411365         1.874647
 C        -2.158352         0.279400         0.284141
 C        -2.579486         0.779688        -1.175554
 C        -2.197447         2.276414        -1.034048
 C        -1.598737         2.308991         0.317779
 H         0.887083         0.785469         1.053790
 H        -1.363057         0.076102         2.680852
 H        -0.825594         1.869793         2.760565
 H        -4.375772         1.254656         1.186497
 H        -2.418530        -0.720271         0.672672
 H        -1.894116         0.259511        -1.898755
 H        -3.718676         0.635477        -1.391796
 H        -1.414983         2.490823        -1.811907
 H        -2.993717         3.006648        -1.338247
 H        -1.294509         3.273663         0.766148
