19
Iteration:  2272charge 0 multiplicity 1
 O         0.455343         0.714745         0.047035
 C        -0.850583         1.045079         0.646792
 C        -1.303171         0.973013         2.121644
 C        -2.512071         1.389132         1.279633
 O        -3.762140         1.555241         1.807485
 C        -2.191183         0.260108         0.319972
 C        -2.503907         0.701507        -1.084044
 C        -2.202325         2.228842        -1.006425
 C        -1.710384         2.269588         0.425849
 H         0.701938        -0.287276         0.121645
 H        -1.419767        -0.027567         2.622043
 H        -0.911501         1.639044         2.887725
 H        -4.181803         0.632599         2.040058
 H        -2.124435        -0.755089         0.708382
 H        -1.666125         0.325350        -1.681289
 H        -3.432786         0.461210        -1.501332
 H        -1.278992         2.374543        -1.604301
 H        -3.024921         2.886743        -1.301974
 H        -1.471179         3.210199         0.900412
