19
Iteration:   452
 O         0.446556         0.640026         0.146092
 C        -0.797705         0.995218         0.662994
 C        -1.291110         0.965703         2.188705
 C        -2.454375         1.279755         1.336651
 O        -3.745302         1.473526         1.769769
 C        -2.237404         0.292523         0.247149
 C        -2.543320         0.768526        -1.179847
 C        -2.345583         2.263229        -1.104364
 C        -1.615186         2.326760         0.401941
 H         0.964272         0.721935         0.998785
 H        -1.298878        -0.074224         2.613066
 H        -0.861281         1.807180         2.751367
 H        -3.744574         1.782965         2.773451
 H        -2.319203        -0.865224         0.334208
 H        -1.665275         0.327840        -1.709208
 H        -3.501629         0.336543        -1.511616
 H        -1.916337         2.644752        -2.039165
 H        -3.322782         2.772026        -0.919218
 H        -1.139922         3.197808         0.715729
