19
Iteration:   166charge 0 multiplicity 1
 O         0.410451         0.681791         0.133929
 C        -0.878955         0.994239         0.620345
 C        -1.290848         0.925731         2.111088
 C        -2.484297         1.274482         1.273550
 O        -3.816632         1.510733         1.788498
 C        -2.121034         0.187683         0.187533
 C        -2.565384         0.729814        -1.105044
 C        -2.132801         2.285587        -0.973087
 C        -1.698243         2.296580         0.433794
 H         1.101441         1.374251         0.590930
 H        -1.308504        -0.073851         2.471498
 H        -0.810279         1.662581         2.809542
 H        -3.558745         1.994209         2.667269
 H        -2.154981        -0.871207         0.317209
 H        -1.972062         0.165500        -1.844278
 H        -3.635030         0.791275        -1.279590
 H        -1.471560         2.715658        -1.628641
 H        -3.100422         2.703801        -1.038406
 H        -1.538068         3.290432         0.897810
