19
Iteration:  3121charge 0 multiplicity 1
 O         0.537467         0.824318         0.203228
 C        -0.796959         0.924415         0.675560
 C        -1.269218         0.932941         2.148089
 C        -2.488144         1.274782         1.278339
 O        -3.912616         1.590529         1.671592
 C        -2.234432         0.190694         0.252230
 C        -2.603665         0.712235        -1.109756
 C        -2.156294         2.268291        -0.951929
 C        -1.588019         2.195607         0.396668
 H         0.635504         1.087345        -0.686047
 H        -1.415114        -0.032664         2.699119
 H        -0.795442         1.715173         2.744442
 H        -3.702222         1.421965         2.663475
 H        -2.392908        -0.845879         0.584808
 H        -2.148600         0.135146        -1.935024
 H        -3.703804         0.598665        -1.129173
 H        -1.694123         2.675501        -1.867114
 H        -3.192290         2.812038        -0.892064
 H        -0.946840         2.981789         0.856157
