19
Iteration:   820
 O         0.313791         0.790108         0.047525
 C        -0.883255         1.003407         0.656796
 C        -1.241448         0.906449         2.114991
 C        -2.500515         1.219877         1.292815
 O        -3.709195         1.622230         1.805993
 C        -2.192410         0.182112         0.260662
 C        -2.451511         0.793838        -1.125067
 C        -2.193857         2.235764        -0.932785
 C        -1.679778         2.260633         0.459159
 H         0.804694         0.007073         0.222784
 H        -1.078382        -0.070769         2.698462
 H        -0.954598         1.820868         2.814214
 H        -4.339419         0.948432         1.621777
 H        -2.289360        -0.850793         0.430079
 H        -1.804828         0.388441        -1.915533
 H        -3.450069         0.519564        -1.383912
 H        -1.483025         2.535223        -1.706736
 H        -3.067734         2.856549        -0.880466
 H        -1.299580         3.205586         1.030754
