19
Iteration:   456charge 0 multiplicity 1
 O         0.448993         0.654050         0.152621
 C        -0.829209         1.009913         0.652761
 C        -1.305440         0.978284         2.180052
 C        -2.463132         1.270670         1.298762
 O        -3.703692         1.463563         1.797262
 C        -2.261516         0.286327         0.250998
 C        -2.540197         0.759130        -1.167670
 C        -2.317257         2.246215        -1.098503
 C        -1.606153         2.316057         0.396955
 H         0.871536         0.686131         1.005711
 H        -1.311661        -0.075665         2.575891
 H        -0.892921         1.797321         2.808850
 H        -3.678653         1.755731         2.644353
 H        -2.485830        -0.782607         0.407150
 H        -1.683824         0.365501        -1.735540
 H        -3.471106         0.299009        -1.656151
 H        -1.993324         2.678605        -2.029367
 H        -3.222881         2.797998        -0.910093
 H        -1.180680         3.364409         0.831684
