19
Iteration:  1312charge 0 multiplicity 1
 O         0.333011         0.736892         0.160002
 C        -0.813439         1.075235         0.706402
 C        -1.262118         0.881293         2.143991
 C        -2.530578         1.255488         1.307339
 O        -3.773370         1.659685         1.835179
 C        -2.080813         0.242697         0.252071
 C        -2.436821         0.690197        -1.147374
 C        -2.236641         2.178899        -1.064152
 C        -1.697800         2.253751         0.401487
 H         0.234426         0.869728        -0.834338
 H        -1.214385        -0.175034         2.406189
 H        -0.794159         1.507672         3.055155
 H        -3.949908         1.021804         2.454357
 H        -2.171091        -0.761468         0.520894
 H        -1.867248         0.074836        -1.935679
 H        -3.479034         0.593504        -1.507306
 H        -1.512147         2.615464        -1.767866
 H        -3.079438         2.858772        -1.022052
 H        -1.423409         3.297245         0.824441
