19
Iteration:  1194
 O         0.473852         0.738408         0.154881
 C        -0.763708         0.902530         0.705351
 C        -1.234456         0.979781         2.195191
 C        -2.454699         1.239179         1.269371
 O        -3.684991         1.625191         1.643903
 C        -2.148086         0.170794         0.255849
 C        -2.781620         0.816471        -1.132296
 C        -2.276158         2.260017        -0.934990
 C        -1.656839         2.166318         0.408407
 H         0.980174         1.429968         0.494156
 H        -1.353072         0.013472         2.773778
 H        -0.963224         1.747908         2.853413
 H        -4.241126         0.856045         1.872719
 H        -2.176285        -0.899431         0.417701
 H        -2.323166         0.316217        -2.035104
 H        -3.848150         0.780126        -1.283146
 H        -1.353519         2.537096        -1.587800
 H        -3.145722         2.990421        -1.109501
 H        -1.404129         3.160251         0.923663
