19
Iteration:  4048charge 0 multiplicity 1
 O         0.574823         0.756319         0.276959
 C        -0.821526         1.014411         0.667132
 C        -1.270260         0.984063         2.126677
 C        -2.565721         1.218416         1.308272
 O        -3.815906         1.656465         1.701423
 C        -2.143135         0.199104         0.250671
 C        -2.581287         0.725577        -1.158798
 C        -2.263563         2.195963        -0.986184
 C        -1.640832         2.224430         0.414297
 H         0.341671         0.273133        -0.636600
 H        -0.934692         0.077027         2.637717
 H        -0.851076         1.904195         2.678909
 H        -4.328892         0.965259         2.250075
 H        -2.319554        -0.810506         0.644699
 H        -1.950271         0.245506        -1.972132
 H        -3.650671         0.680420        -1.232807
 H        -1.516563         2.506917        -1.779550
 H        -3.185997         2.796424        -1.126286
 H        -1.305284         3.192742         0.730690
