19
Iteration:  1689charge 0 multiplicity 1
 O         0.572690         0.838845         0.203559
 C        -0.859747         0.934106         0.582803
 C        -1.213828         1.086947         2.215371
 C        -2.467995         1.194172         1.395366
 O        -3.831438         1.684730         1.633544
 C        -2.077845         0.108127         0.229402
 C        -2.745196         0.761639        -1.054727
 C        -2.283300         2.187904        -0.978199
 C        -1.644201         2.173231         0.354708
 H         0.829876        -0.002876         0.461511
 H        -1.019175         0.041634         2.791046
 H        -0.701956         1.909190         2.662059
 H        -4.201139         0.927149         1.888386
 H        -2.062862        -0.888484         0.143243
 H        -2.376466         0.395564        -2.013432
 H        -3.831756         0.698601        -1.086599
 H        -1.626248         2.453876        -1.774521
 H        -3.152249         2.865412        -0.852585
 H        -1.210020         3.052775         0.756568
