19
Iteration:   939
 O         0.356454         0.846474         0.062790
 C        -0.865917         0.913872         0.722882
 C        -1.271326         0.813983         2.173134
 C        -2.452750         1.308457         1.348133
 O        -3.750087         1.604876         1.729224
 C        -2.126950         0.251195         0.235856
 C        -2.502581         0.740144        -1.156097
 C        -2.247328         2.247493        -0.999097
 C        -1.657080         2.281554         0.456103
 H         0.536098        -0.180195        -0.004280
 H        -1.417008        -0.136291         2.562980
 H        -0.814048         1.439746         2.982680
 H        -3.914513         1.300672         2.629796
 H        -2.204958        -0.784886         0.428945
 H        -1.876245         0.289596        -1.933404
 H        -3.509188         0.505078        -1.431335
 H        -1.476648         2.700391        -1.696660
 H        -3.223306         2.861590        -1.104844
 H        -1.315130         3.285995         0.826288
