19
Iteration:  1238
 O         0.473959         0.708786         0.147933
 C        -0.786111         1.040442         0.687893
 C        -1.249165         0.881817         2.123939
 C        -2.463118         1.336266         1.344513
 O        -3.758021         1.583261         1.660684
 C        -2.102565         0.251510         0.250769
 C        -2.660788         0.755961        -1.079411
 C        -2.271047         2.231131        -1.000921
 C        -1.739472         2.314353         0.417191
 H         0.953009         0.043936         0.545743
 H        -1.266052        -0.151565         2.441393
 H        -0.799722         1.417772         2.868386
 H        -4.107902         0.780236         2.174057
 H        -2.183998        -0.777868         0.592770
 H        -2.185564         0.257309        -1.952768
 H        -3.712418         0.471215        -1.065723
 H        -1.454487         2.359824        -1.795710
 H        -3.053330         3.046872        -1.126669
 H        -1.376203         3.326630         0.755323
