19
Iteration:  1008
 O         0.327772         0.766871         0.192946
 C        -0.841106         1.015888         0.696692
 C        -1.247861         0.823456         2.139257
 C        -2.450827         1.325540         1.355147
 O        -3.712638         1.549609         1.795036
 C        -2.148669         0.300610         0.220294
 C        -2.587259         0.790809        -1.132083
 C        -2.239140         2.242666        -1.058019
 C        -1.634467         2.280969         0.361387
 H         0.874535         0.000153         0.391260
 H        -1.264183        -0.194999         2.658186
 H        -0.721770         1.373138         2.899172
 H        -4.169244         0.776465         1.726304
 H        -2.210659        -0.774806         0.359149
 H        -2.086717         0.220357        -1.916526
 H        -3.609288         0.660289        -1.362034
 H        -1.518738         2.512362        -1.859573
 H        -3.135400         2.870825        -1.108077
 H        -1.210019         3.318600         0.723829
