19
Iteration:  2122charge 0 multiplicity 1
 O         0.454974         0.756354         0.056891
 C        -0.790239         0.973288         0.627977
 C        -1.327076         0.915954         2.130027
 C        -2.496824         1.351914         1.312641
 O        -3.829011         1.628915         1.794799
 C        -2.111182         0.198661         0.345764
 C        -2.416982         0.706170        -1.089992
 C        -2.290375         2.247997        -0.984422
 C        -1.709657         2.299558         0.347437
 H         0.746595        -0.246009         0.217812
 H        -1.423485        -0.112255         2.371813
 H        -0.985600         1.601234         2.902807
 H        -4.267277         1.128239         2.579148
 H        -2.262281        -0.861957         0.656774
 H        -1.638418         0.280888        -1.741916
 H        -3.379128         0.210168        -1.430210
 H        -1.561072         2.636201        -1.775938
 H        -3.182022         2.824610        -1.116580
 H        -1.354028         3.238867         0.739289
