19
Iteration:    68charge 0 multiplicity 1
 O         0.523515         0.840164         0.147380
 C        -0.828371         0.936964         0.597378
 C        -1.327489         0.862813         2.110371
 C        -2.522474         1.330456         1.263155
 O        -3.868782         1.415348         1.847524
 C        -2.188292         0.281529         0.240997
 C        -2.591394         0.738238        -1.138889
 C        -2.169507         2.313754        -0.939322
 C        -1.573395         2.246760         0.438424
 H         0.948131        -0.142748         0.121275
 H        -1.271009        -0.148832         2.398686
 H        -1.012456         1.628057         2.841827
 H        -4.197505         2.370302         1.896081
 H        -2.480820        -0.710491         0.480789
 H        -2.037164         0.256191        -1.944054
 H        -3.644861         0.641404        -1.325918
 H        -1.390528         2.548295        -1.667661
 H        -3.008985         2.989034        -1.066741
 H        -0.970048         3.126205         0.793401
