19
Iteration:  3449
 O         0.437290         0.609230         0.207441
 C        -0.819291         0.979056         0.666561
 C        -1.250719         1.032588         2.121431
 C        -2.524711         1.413869         1.292418
 O        -3.772653         1.384446         1.927912
 C        -2.147852         0.257472         0.238576
 C        -2.555100         0.739680        -1.197216
 C        -2.198373         2.285985        -1.101559
 C        -1.673949         2.329950         0.371683
 H         1.045794         0.489083         0.914042
 H        -1.290329         0.028205         2.577322
 H        -0.864504         1.846223         2.854108
 H        -4.408973         1.324039         1.276780
 H        -2.242317        -0.825597         0.506348
 H        -2.243151         0.331662        -2.165031
 H        -3.679222         0.764243        -1.351615
 H        -1.394413         2.623154        -1.822776
 H        -3.116215         2.919661        -1.161137
 H        -1.397670         3.303482         0.817744
