19
Iteration:  4513charge 0 multiplicity 1
 O         0.535795         0.684726         0.314592
 C        -0.760032         1.025162         0.664794
 C        -1.234959         1.246876         2.148603
 C        -2.520116         1.361961         1.305061
 O        -3.872883         1.571942         1.718977
 C        -1.994618         0.158976         0.323989
 C        -2.618030         0.532418        -1.205333
 C        -2.326533         2.056343        -1.087592
 C        -1.716094         2.240768         0.340741
 H         0.827042         0.816342        -0.705825
 H        -1.219218         0.580267         3.039974
 H        -0.905801         2.251739         2.631719
 H        -3.970718         2.056725         2.542799
 H        -2.127707        -0.815390         0.886430
 H        -2.210443         0.061328        -2.070832
 H        -3.727373         0.268449        -1.099728
 H        -1.567433         2.359510        -1.819581
 H        -3.292556         2.712479        -1.081253
 H        -1.364813         3.296373         0.565579
