19
Iteration:  4556charge 0 multiplicity 1
 O         0.512549         0.712328         0.423953
 C        -0.879854         1.058117         0.659060
 C        -1.286948         1.170344         2.140181
 C        -2.449777         1.500191         1.313115
 O        -3.770665         1.430502         1.790900
 C        -2.098911         0.260002         0.338228
 C        -2.602076         0.490282        -1.164464
 C        -2.352273         2.070763        -1.143053
 C        -1.626071         2.311021         0.195429
 H         0.546089         0.470247        -0.554991
 H        -1.115371         0.156387         2.510575
 H        -0.807217         1.983130         2.759921
 H        -3.913801         2.206255         2.378985
 H        -2.036364        -0.792725         0.704165
 H        -1.965188         0.045450        -1.899401
 H        -3.631154         0.228787        -1.584776
 H        -1.726255         2.380437        -1.974654
 H        -3.364767         2.541223        -1.072178
 H        -1.302734         3.336996         0.552511
