19
Iteration:  3576charge 0 multiplicity 1
 O         0.530503         0.604436         0.173313
 C        -0.844943         0.968447         0.665409
 C        -1.255609         0.967244         2.077604
 C        -2.577019         1.295347         1.337911
 O        -3.856849         1.417803         1.872749
 C        -2.210713         0.297267         0.283161
 C        -2.527157         0.790373        -1.150053
 C        -2.195641         2.280717        -1.046424
 C        -1.591884         2.284363         0.405350
 H         1.034020         1.459361         0.059364
 H        -1.069775         0.072185         2.710317
 H        -0.908820         1.843886         2.598125
 H        -4.397411         1.994410         1.270407
 H        -2.512529        -0.755748         0.480455
 H        -1.917505         0.132586        -1.876391
 H        -3.585605         0.758300        -1.545248
 H        -1.467972         2.639826        -1.802779
 H        -3.126418         2.844010        -1.145991
 H        -1.389251         3.207046         0.957306
