19
Iteration:   840charge 0 multiplicity 1
 O         0.467805         0.809080         0.030548
 C        -0.807960         0.871375         0.656675
 C        -1.259486         0.866272         2.165903
 C        -2.512649         1.398016         1.381527
 O        -3.833768         1.530795         1.828420
 C        -2.206815         0.287206         0.272343
 C        -2.586948         0.695024        -1.198769
 C        -2.196703         2.316352        -0.980124
 C        -1.615507         2.282118         0.420411
 H         1.119903         0.159815         0.521686
 H        -1.474940        -0.067377         2.698378
 H        -0.698722         1.585591         2.868434
 H        -4.275584         0.735447         1.695836
 H        -2.337518        -0.724440         0.530974
 H        -1.942977         0.180281        -1.898641
 H        -3.591537         0.572865        -1.424136
 H        -1.495383         2.633799        -1.764233
 H        -3.179913         2.892691        -0.948131
 H        -1.037083         3.179909         0.667288
