19
Iteration:  1898charge 0 multiplicity 1
 O         0.414458         0.837115         0.070611
 C        -0.838116         0.936474         0.719785
 C        -1.198638         0.957799         2.212968
 C        -2.506757         1.356489         1.361749
 O        -3.901765         1.606370         1.805892
 C        -2.062661         0.206016         0.236400
 C        -2.591546         0.683846        -1.140750
 C        -2.138761         2.176447        -1.103828
 C        -1.649884         2.288600         0.416666
 H         0.822083        -0.107967         0.265581
 H        -1.361983         0.027413         2.663420
 H        -0.744741         1.621383         2.841266
 H        -4.174274         0.766156         2.387493
 H        -2.214545        -0.835379         0.353494
 H        -2.319234         0.119422        -2.041108
 H        -3.676929         0.647734        -1.260404
 H        -1.356001         2.407449        -1.776985
 H        -2.932786         2.881497        -1.340397
 H        -1.408909         3.295283         0.755214
