19
Iteration:  4201charge 0 multiplicity 1
 O         0.437130         0.876826         0.170127
 C        -0.829910         0.976794         0.711816
 C        -1.214996         1.111510         2.224271
 C        -2.522349         1.291901         1.324259
 O        -3.811221         1.558104         1.671528
 C        -2.100067         0.192308         0.264868
 C        -2.587120         0.610033        -1.075043
 C        -2.256570         2.081558        -1.004573
 C        -1.696271         2.199808         0.390633
 H         0.611269        -0.109530        -0.076905
 H        -1.034441         0.235308         2.861671
 H        -0.647211         2.039826         2.545160
 H        -3.853237         2.569782         1.639490
 H        -2.249385        -0.902214         0.345229
 H        -1.992223         0.083518        -1.934277
 H        -3.539686         0.277567        -1.479521
 H        -1.468586         2.473627        -1.743935
 H        -3.070429         2.851328        -1.119559
 H        -1.287981         3.128770         0.775675
