19
Iteration:  1046charge 0 multiplicity 1
 O         0.596342         0.821554         0.086289
 C        -0.742013         0.850909         0.680769
 C        -1.256097         0.956087         2.170979
 C        -2.511647         1.174470         1.313156
 O        -3.848687         1.690849         1.715648
 C        -2.150137         0.152638         0.190762
 C        -2.734368         0.844823        -1.070760
 C        -2.235120         2.288750        -0.953682
 C        -1.647872         2.150592         0.434591
 H         1.203302         0.220359         0.728465
 H        -1.159275         0.017193         2.752435
 H        -0.834497         1.921716         2.559021
 H        -4.434695         0.925938         1.556298
 H        -2.275767        -0.974294         0.304278
 H        -2.377510         0.401565        -2.026504
 H        -3.890662         0.803872        -0.906692
 H        -1.478776         2.531672        -1.687532
 H        -3.012580         3.070753        -0.889542
 H        -1.370212         3.043342         0.892329
