19
Iteration:  3670
 O         0.357640         0.792181         0.013126
 C        -0.848380         0.908922         0.732732
 C        -1.384389         0.875410         2.226009
 C        -2.441999         1.369395         1.232443
 O        -3.763164         1.542300         1.740180
 C        -2.185722         0.228431         0.320590
 C        -2.519171         0.707449        -1.112455
 C        -2.198433         2.324026        -0.966817
 C        -1.547440         2.226280         0.438039
 H         1.075314         0.727634         0.598495
 H        -1.325693        -0.171942         2.652819
 H        -0.809210         1.544904         2.884425
 H        -4.384787         1.071519         1.166113
 H        -2.295306        -0.783491         0.726158
 H        -1.798815         0.470382        -1.886758
 H        -3.559834         0.370483        -1.334380
 H        -1.575924         2.598356        -1.815089
 H        -3.082288         3.045254        -0.813945
 H        -1.250575         3.272104         0.628727
