19
Iteration:    67charge 0 multiplicity 1
 O         0.517461         0.843687         0.145203
 C        -0.839202         0.941821         0.589599
 C        -1.335956         0.867455         2.113805
 C        -2.520439         1.333671         1.265884
 O        -3.859221         1.406800         1.847056
 C        -2.196013         0.278773         0.236995
 C        -2.590224         0.736166        -1.130758
 C        -2.162844         2.312682        -0.937639
 C        -1.561168         2.249944         0.438167
 H         0.973939        -0.132018         0.150536
 H        -1.308995        -0.169595         2.385239
 H        -1.020962         1.629693         2.835362
 H        -4.198233         2.397558         1.890386
 H        -2.449884        -0.708294         0.481335
 H        -2.044652         0.250421        -1.945415
 H        -3.645595         0.631691        -1.356084
 H        -1.424773         2.517897        -1.643229
 H        -2.976868         2.999889        -1.057159
 H        -0.966236         3.100792         0.781764
