19
Iteration:  4573
 O         0.521345         0.780575         0.290643
 C        -0.747091         1.016568         0.694297
 C        -1.213383         1.140125         2.162773
 C        -2.548743         1.365295         1.248466
 O        -3.872535         1.532779         1.795196
 C        -2.128597         0.218621         0.321610
 C        -2.483688         0.552196        -1.084021
 C        -2.300373         2.051746        -1.130431
 C        -1.693369         2.265983         0.294838
 H         0.540629         0.392845        -0.591399
 H        -1.442418         0.274159         2.813451
 H        -0.853655         2.061271         2.591335
 H        -3.844037         2.446982         2.202459
 H        -2.386514        -0.760890         0.681487
 H        -2.075526        -0.111372        -1.946099
 H        -3.500198         0.195616        -1.148639
 H        -1.806082         2.524451        -2.028593
 H        -3.274727         2.532463        -1.155001
 H        -1.349674         3.275116         0.434782
