19
Iteration:  4135charge 0 multiplicity 1
 O         0.428693         0.678086         0.258425
 C        -0.873171         1.009438         0.643990
 C        -1.228805         1.059708         2.121207
 C        -2.554122         1.291653         1.273214
 O        -3.787270         1.584408         1.832112
 C        -2.157121         0.225765         0.216666
 C        -2.528210         0.657354        -1.133530
 C        -2.150740         2.187477        -1.090355
 C        -1.772473         2.290359         0.323942
 H         1.054786         1.439604         0.454588
 H        -1.168844         0.040946         2.558574
 H        -0.704997         1.825801         2.821666
 H        -3.807895         1.181635         2.706251
 H        -2.121436        -0.806358         0.583947
 H        -1.919609        -0.027747        -1.892342
 H        -3.587187         0.430877        -1.372381
 H        -1.283395         2.333581        -1.810651
 H        -3.110666         2.699576        -1.250290
 H        -1.445457         3.194737         0.795857
