19
Iteration:  2692charge 0 multiplicity 1
 O         0.448664         0.584545         0.249023
 C        -0.777560         1.018839         0.686503
 C        -1.199893         1.035727         2.101424
 C        -2.543986         1.285681         1.312502
 O        -3.775643         1.592745         1.795372
 C        -2.101562         0.272558         0.267675
 C        -2.505298         0.725903        -1.159151
 C        -2.299269         2.242475        -1.048507
 C        -1.761278         2.274082         0.363535
 H         0.730629         0.742234        -0.710639
 H        -1.203167         0.070356         2.681432
 H        -0.830662         1.887746         2.739013
 H        -4.166550         0.759851         2.294358
 H        -2.316711        -0.761265         0.631126
 H        -1.759443         0.265660        -1.885771
 H        -3.583664         0.440547        -1.211672
 H        -1.529809         2.622514        -1.703890
 H        -3.227885         2.787059        -1.348933
 H        -1.612195         3.259513         0.830613
