19
Iteration:  4717
 O         0.521961         0.865053         0.283496
 C        -0.834339         0.997249         0.665272
 C        -1.286231         1.062366         2.169669
 C        -2.504579         1.428522         1.340601
 O        -3.810373         1.582686         1.673277
 C        -2.105949         0.195691         0.402473
 C        -2.535083         0.562677        -1.028449
 C        -2.314593         2.018951        -1.184328
 C        -1.701419         2.263267         0.254758
 H         0.685239         0.389029        -0.581562
 H        -1.128375         0.097483         2.696668
 H        -0.831809         1.906049         2.681174
 H        -3.903319         1.686010         2.615447
 H        -2.144514        -0.829304         0.833359
 H        -2.068494        -0.047051        -1.859186
 H        -3.567019         0.241800        -1.253488
 H        -1.615837         2.462876        -2.003006
 H        -3.255779         2.551147        -1.130274
 H        -1.169408         3.214321         0.563255
