19
Iteration:   830
 O         0.339314         0.829624         0.034362
 C        -0.853553         0.936292         0.669088
 C        -1.255417         0.918767         2.145288
 C        -2.493570         1.321932         1.286705
 O        -3.756437         1.562081         1.816440
 C        -2.192997         0.227539         0.235653
 C        -2.550065         0.710788        -1.131031
 C        -2.204543         2.277830        -0.954853
 C        -1.554471         2.238095         0.466445
 H         0.761664         0.087816         0.563847
 H        -1.302793        -0.136925         2.547422
 H        -0.730278         1.714799         2.825140
 H        -4.241576         0.826782         1.633281
 H        -2.417734        -0.727092         0.574920
 H        -1.809034         0.268262        -1.797762
 H        -3.481720         0.542515        -1.558848
 H        -1.526488         2.720470        -1.698170
 H        -3.116896         2.901927        -1.066104
 H        -1.207423         3.141627         1.061356
