19
Iteration:  1185charge 0 multiplicity 1
 O         0.471358         0.698255         0.174400
 C        -0.827208         0.949269         0.649214
 C        -1.282602         0.922496         2.180859
 C        -2.445496         1.261666         1.256510
 O        -3.688606         1.636993         1.707656
 C        -2.115808         0.171494         0.227337
 C        -2.685641         0.783030        -1.118969
 C        -2.236189         2.278733        -0.996183
 C        -1.710936         2.247995         0.442267
 H         0.911567         1.507051         0.165154
 H        -1.366259        -0.138955         2.731790
 H        -0.857220         1.638098         2.858825
 H        -4.176491         0.810352         1.925869
 H        -2.273621        -0.883181         0.636445
 H        -2.284197         0.246890        -1.947591
 H        -3.735560         0.603068        -1.010988
 H        -1.525369         2.594300        -1.783308
 H        -3.123777         2.928473        -1.087966
 H        -1.439594         3.127563         1.009458
