19
Iteration:  4494
 O         0.479445         0.821864         0.244063
 C        -0.802149         1.000940         0.691687
 C        -1.286932         1.150773         2.184701
 C        -2.507779         1.325729         1.278543
 O        -3.794835         1.599884         1.635996
 C        -2.161617         0.158937         0.371946
 C        -2.560225         0.532324        -0.974025
 C        -2.264154         2.051058        -1.116612
 C        -1.653077         2.233595         0.293051
 H         0.295985         0.955750        -0.779972
 H        -1.031471         0.259057         2.761835
 H        -0.867055         1.952965         2.861619
 H        -3.758146         2.181163         2.433766
 H        -2.022916        -0.898117         0.636751
 H        -1.847852         0.015183        -1.661085
 H        -3.599312         0.262109        -1.135380
 H        -1.674593         2.332894        -1.977835
 H        -3.216603         2.685225        -1.242185
 H        -1.400347         3.236785         0.580202
