19
Iteration:  2725
 O         0.461430         0.847626         0.190946
 C        -0.782261         0.914019         0.687201
 C        -1.287790         0.971340         2.123435
 C        -2.523948         1.353188         1.292673
 O        -3.815495         1.639669         1.779935
 C        -2.155002         0.203331         0.241578
 C        -2.558099         0.674314        -1.105402
 C        -2.183847         2.155820        -0.993569
 C        -1.615449         2.156246         0.378289
 H         0.556264         1.179161        -0.726738
 H        -1.370708         0.014191         2.723579
 H        -0.772810         1.782269         2.707544
 H        -4.245393         0.948673         2.173170
 H        -2.454505        -0.760898         0.690533
 H        -2.339494         0.178308        -2.117944
 H        -3.681075         0.556073        -1.222629
 H        -1.481030         2.412880        -1.758688
 H        -3.071018         2.856826        -1.000565
 H        -1.192217         3.074143         0.820027
