19
Iteration:  1991
 O         0.468037         0.740030         0.191643
 C        -0.755472         0.929872         0.669748
 C        -1.233957         0.986930         2.189360
 C        -2.416872         1.253991         1.369582
 O        -3.773387         1.658562         1.661188
 C        -2.108779         0.200774         0.219823
 C        -2.618398         0.721693        -1.166700
 C        -2.390530         2.257296        -0.959096
 C        -1.693641         2.261306         0.391342
 H         0.812983        -0.078465         0.327480
 H        -1.061539         0.160612         2.946049
 H        -0.855622         1.887602         2.786791
 H        -4.254674         1.013091         2.153499
 H        -2.176106        -0.901633         0.467458
 H        -1.979334         0.379579        -1.995536
 H        -3.539371         0.234750        -1.517978
 H        -1.724675         2.686510        -1.818559
 H        -3.299608         2.866481        -1.098870
 H        -1.421615         3.213272         0.841090
