19
Iteration:  2698
 O         0.462770         0.614929         0.238634
 C        -0.797575         0.991082         0.667712
 C        -1.218865         1.035745         2.186442
 C        -2.513914         1.306657         1.326051
 O        -3.783167         1.577629         1.796172
 C        -2.133866         0.263376         0.244129
 C        -2.512958         0.702004        -1.147775
 C        -2.285460         2.244166        -1.059097
 C        -1.775316         2.279695         0.356237
 H         0.647106         0.823319        -0.689613
 H        -1.158739         0.099153         2.711841
 H        -0.764933         1.878148         2.689308
 H        -4.180383         0.896537         2.237039
 H        -2.127842        -0.782092         0.565592
 H        -1.966221         0.241562        -1.998174
 H        -3.520479         0.440429        -1.450441
 H        -1.490329         2.531041        -1.805971
 H        -3.140953         2.902818        -1.177853
 H        -1.315973         3.188693         0.793689
