19
Iteration:  2560charge 0 multiplicity 1
 O         0.501244         0.724732         0.204137
 C        -0.812523         0.856771         0.673227
 C        -1.215812         1.067000         2.134057
 C        -2.527371         1.340403         1.279423
 O        -3.893717         1.519520         1.834445
 C        -2.175380         0.237119         0.269474
 C        -2.635685         0.687602        -1.136726
 C        -2.132058         2.275723        -1.022655
 C        -1.631497         2.246121         0.374930
 H         0.813273         1.216070        -0.626986
 H        -1.239162         0.258770         2.929403
 H        -0.745136         2.062196         2.364205
 H        -4.134489         0.628853         2.234105
 H        -2.343426        -0.819407         0.527404
 H        -2.261458         0.092276        -1.951393
 H        -3.731613         0.740727        -1.308908
 H        -1.377397         2.331251        -1.815178
 H        -2.940103         3.045115        -1.231795
 H        -1.197651         3.177620         0.718075
