19
Iteration:   203
 O         0.433298         0.805127         0.058169
 C        -0.794646         0.975804         0.654202
 C        -1.243263         0.917103         2.209820
 C        -2.543628         1.298358         1.343004
 O        -3.843171         1.441206         1.869087
 C        -2.220617         0.226676         0.182332
 C        -2.588555         0.746374        -1.179791
 C        -2.063883         2.224603        -1.057837
 C        -1.690710         2.286917         0.442765
 H         1.031989         0.376277         0.750631
 H        -1.337842        -0.071495         2.721936
 H        -0.801986         1.665517         2.846660
 H        -3.952124         2.337066         2.200330
 H        -2.380396        -0.879116         0.435232
 H        -2.102757         0.133910        -1.947843
 H        -3.653354         0.691965        -1.481357
 H        -1.220906         2.513940        -1.761897
 H        -2.880109         2.984132        -1.224176
 H        -1.405047         3.364168         0.795260
