19
Iteration:  3223
 O         0.481052         0.654644         0.271400
 C        -0.788091         1.052300         0.669825
 C        -1.241755         0.944934         2.114678
 C        -2.541509         1.283837         1.287126
 O        -3.799847         1.516630         1.864882
 C        -2.084510         0.273248         0.194987
 C        -2.604211         0.700522        -1.206071
 C        -2.229950         2.322963        -0.961039
 C        -1.711611         2.287314         0.418424
 H         0.591552         0.073475        -0.563412
 H        -1.289992        -0.104433         2.362110
 H        -0.851115         1.637011         2.879285
 H        -4.480552         1.826870         1.231930
 H        -1.983686        -0.829287         0.313789
 H        -1.991140         0.157151        -1.939302
 H        -3.690194         0.453936        -1.290034
 H        -1.371573         2.560666        -1.600980
 H        -3.034588         3.022612        -1.392671
 H        -1.375650         3.254276         0.928462
