19
Iteration:  3001
 O         0.496837         0.687353         0.139129
 C        -0.777470         1.098901         0.745619
 C        -1.294426         0.859685         2.169618
 C        -2.514889         1.235353         1.314495
 O        -3.773431         1.619823         1.808480
 C        -2.100180         0.236200         0.280596
 C        -2.529893         0.604424        -1.153761
 C        -2.235042         2.218203        -0.987865
 C        -1.753700         2.315957         0.414590
 H         0.486756         0.623598        -0.878752
 H        -1.276993        -0.114238         2.677508
 H        -1.112356         1.634776         2.886527
 H        -4.168583         2.230976         1.219193
 H        -2.006763        -0.837576         0.390277
 H        -1.945045         0.228282        -1.997390
 H        -3.582826         0.598126        -1.470123
 H        -1.611038         2.782759        -1.655315
 H        -3.208084         2.834690        -1.135111
 H        -1.674682         3.445542         0.725193
