19
Iteration:  1839
 O         0.551582         0.798668         0.214072
 C        -0.743467         0.840064         0.658665
 C        -1.190090         1.051519         2.178955
 C        -2.517755         1.251934         1.329448
 O        -3.757217         1.681426         1.694607
 C        -2.058528         0.166634         0.220712
 C        -2.633017         0.765543        -1.125005
 C        -2.390767         2.277265        -1.034023
 C        -1.731518         2.147886         0.395841
 H         0.820137        -0.046012         0.461601
 H        -1.246227         0.118397         2.724493
 H        -0.781649         1.889256         2.818080
 H        -4.406803         0.991280         1.831608
 H        -2.352769        -0.927335         0.438428
 H        -2.326291         0.161201        -1.977413
 H        -3.698867         0.682484        -0.919519
 H        -1.750547         2.693368        -1.811758
 H        -3.371127         2.767035        -1.084235
 H        -1.402289         3.161307         0.789737
