19
Iteration:    41
 O         0.352243         0.816843         0.101837
 C        -0.858903         0.933690         0.727327
 C        -1.246047         0.837681         2.233035
 C        -2.495726         1.282121         1.281061
 O        -3.792346         1.408326         1.834820
 C        -2.143077         0.265834         0.216214
 C        -2.581040         0.841000        -1.191341
 C        -2.079030         2.290698        -1.082660
 C        -1.678781         2.239809         0.442654
 H         1.165688         0.432273         0.624847
 H        -1.311344        -0.227418         2.645256
 H        -0.862835         1.670807         2.821272
 H        -4.052481         2.396687         1.894682
 H        -2.475306        -0.804455         0.388164
 H        -2.266021         0.254884        -2.086183
 H        -3.709770         0.864333        -1.301247
 H        -1.235280         2.535666        -1.745296
 H        -2.913307         2.981887        -1.291477
 H        -1.309144         3.168912         0.856665
