19
Iteration:  2658
 O         0.493962         0.644502         0.293615
 C        -0.825994         0.962004         0.658189
 C        -1.222299         1.001353         2.161752
 C        -2.485981         1.329251         1.344775
 O        -3.785405         1.616452         1.784299
 C        -2.054695         0.284001         0.272617
 C        -2.515177         0.733278        -1.234857
 C        -2.429587         2.244361        -1.051846
 C        -1.661008         2.235261         0.364759
 H         0.339051         0.313285        -0.635797
 H        -1.341839         0.048650         2.750854
 H        -0.801972         1.834353         2.788083
 H        -4.121301         0.827407         2.390731
 H        -2.327566        -0.755812         0.447524
 H        -1.810111         0.320929        -2.081685
 H        -3.441028         0.202402        -1.511110
 H        -1.717059         2.728920        -1.703142
 H        -3.404271         2.781243        -1.119631
 H        -1.367196         3.228325         0.560145
