19
Iteration:  1677charge 0 multiplicity 1
 O         0.534534         0.835554         0.189331
 C        -0.754168         0.905852         0.575249
 C        -1.206611         1.021635         2.162714
 C        -2.499358         1.276780         1.285076
 O        -3.775147         1.651515         1.650287
 C        -2.142919         0.151869         0.204274
 C        -2.712769         0.694765        -1.091989
 C        -2.307017         2.221784        -0.933295
 C        -1.646510         2.195043         0.438752
 H         0.970832         0.048867         0.685259
 H        -1.150514         0.230507         3.004991
 H        -0.921573         1.993953         2.590971
 H        -4.355517         0.986725         2.163054
 H        -2.261306        -0.804374         0.573398
 H        -2.303252         0.152380        -1.960053
 H        -3.786887         0.561796        -1.053686
 H        -1.625945         2.535983        -1.671637
 H        -3.159635         2.897618        -1.028488
 H        -1.317269         3.171422         0.870529
