19
Iteration:  3906charge 0 multiplicity 1
 O         0.404972         0.759633         0.276635
 C        -0.853780         0.986379         0.660077
 C        -1.156673         0.875624         2.115367
 C        -2.518253         1.307297         1.271399
 O        -3.748487         1.611943         1.787381
 C        -2.196423         0.243219         0.225709
 C        -2.581281         0.771419        -1.189152
 C        -2.277793         2.226304        -1.021180
 C        -1.614827         2.249241         0.343503
 H         1.001581         0.228282         0.933964
 H        -1.139131        -0.114881         2.521192
 H        -0.857100         1.602147         2.904734
 H        -4.323313         0.796261         1.969837
 H        -2.357392        -0.807448         0.531571
 H        -1.855869         0.322249        -1.870008
 H        -3.607034         0.693665        -1.481405
 H        -1.536495         2.612910        -1.769448
 H        -3.182658         2.804380        -1.037881
 H        -1.258215         3.185609         0.710813
