19
Iteration:  4629charge 0 multiplicity 1
 O         0.516111         0.847270         0.138386
 C        -0.801921         1.049819         0.717085
 C        -1.239846         1.088413         2.216106
 C        -2.543526         1.418166         1.281587
 O        -3.899800         1.533904         1.687468
 C        -2.135734         0.158500         0.456197
 C        -2.527593         0.488010        -0.967913
 C        -2.198508         2.113924        -1.150875
 C        -1.679320         2.225315         0.325746
 H         0.351302         0.847275        -0.913166
 H        -1.402842         0.088309         2.706109
 H        -0.768351         1.755991         2.901902
 H        -4.095977         2.462143         1.801084
 H        -2.199182        -0.896949         0.675443
 H        -1.860915        -0.118371        -1.712898
 H        -3.594891         0.257519        -1.162740
 H        -1.413666         2.308199        -1.928050
 H        -3.103351         2.636000        -1.234484
 H        -1.254943         3.228915         0.433708
