19
Iteration:   540
 O         0.471605         0.894685         0.061231
 C        -0.786971         0.903756         0.680258
 C        -1.197006         0.895547         2.241966
 C        -2.519040         1.385197         1.413010
 O        -3.903888         1.450276         1.665323
 C        -2.174861         0.186506         0.324421
 C        -2.662816         0.720640        -1.082496
 C        -2.176879         2.229461        -1.025688
 C        -1.567070         2.264772         0.395681
 H         0.601854         0.188674        -0.660123
 H        -1.420565        -0.127113         2.687573
 H        -0.631478         1.557798         2.904371
 H        -4.161598         2.461724         1.870409
 H        -2.259773        -0.968676         0.593990
 H        -2.214322         0.235549        -1.968973
 H        -3.773402         0.688608        -1.046499
 H        -1.246564         2.400289        -1.593090
 H        -2.941631         3.054107        -1.030114
 H        -1.022141         3.131756         0.560770
