19
Iteration:  4419
 O         0.516630         0.728905         0.345639
 C        -0.810556         1.007230         0.649047
 C        -1.256099         1.221945         2.142311
 C        -2.511254         1.398545         1.269425
 O        -3.779430         1.497377         1.890358
 C        -2.092968         0.186394         0.322926
 C        -2.623601         0.549151        -1.124592
 C        -2.262901         2.042702        -1.163092
 C        -1.708553         2.279068         0.264486
 H         0.517201         0.777738        -0.558216
 H        -1.243011         0.543371         2.982437
 H        -0.875487         2.173354         2.533998
 H        -4.323068         2.170149         1.476739
 H        -2.180514        -0.837269         0.712331
 H        -1.941347         0.170691        -1.948707
 H        -3.638107         0.334547        -1.428977
 H        -1.402394         2.086160        -1.966950
 H        -3.120077         2.700310        -1.285220
 H        -1.392810         3.205943         0.704767
