19
Iteration:  4108
 O         0.517829         0.678976         0.154886
 C        -0.826469         0.962159         0.677966
 C        -1.299095         1.102016         2.279773
 C        -2.557587         1.284043         1.297106
 O        -3.866592         1.508741         1.761081
 C        -2.136717         0.153786         0.231473
 C        -2.551404         0.654324        -1.155922
 C        -2.216191         2.250316        -1.010861
 C        -1.645201         2.275051         0.355289
 H         0.852542         1.420744        -0.408303
 H        -1.199611         0.150415         2.842908
 H        -0.865456         1.910729         2.795395
 H        -3.940181         2.389747         2.127225
 H        -2.170048        -0.843063         0.674332
 H        -2.033720         0.173536        -1.911402
 H        -3.554176         0.322646        -1.467109
 H        -1.484642         2.449319        -1.783549
 H        -3.109954         2.866760        -1.161446
 H        -1.126299         3.136125         0.848711
