19
Iteration:  1774charge 0 multiplicity 1
 O         0.369854         0.798058         0.019800
 C        -0.881046         0.963389         0.619546
 C        -1.304798         1.078916         2.153494
 C        -2.521365         1.287020         1.344107
 O        -3.753154         1.661358         1.875380
 C        -2.158543         0.165811         0.265872
 C        -2.407934         0.656819        -1.234304
 C        -2.172934         2.204162        -0.971736
 C        -1.804259         2.180397         0.411335
 H         0.809180        -0.097993         0.276208
 H        -1.377700         0.207585         2.694125
 H        -1.000549         1.931021         2.703414
 H        -3.830393         1.116782         2.805260
 H        -2.254794        -0.874274         0.654058
 H        -1.544790         0.364301        -1.851607
 H        -3.307076         0.276877        -1.669379
 H        -1.239639         2.452267        -1.363698
 H        -2.836234         2.988648        -1.273850
 H        -1.284263         3.028962         0.943079
