19
Iteration:  2169charge 0 multiplicity 1
 O         0.570973         0.751060         0.212424
 C        -0.843317         0.966646         0.593585
 C        -1.308481         1.011168         2.140582
 C        -2.502838         1.237927         1.313750
 O        -3.760288         1.611453         1.662322
 C        -2.115309         0.179601         0.237045
 C        -2.602474         0.791734        -1.064697
 C        -2.347814         2.242433        -0.959266
 C        -1.676707         2.214096         0.390138
 H         0.797351        -0.140099         0.424322
 H        -1.235538         0.058860         2.692765
 H        -0.754759         1.939681         2.418285
 H        -4.102755         1.189382         2.427118
 H        -2.007551        -0.900633         0.438656
 H        -2.050136         0.250012        -1.810116
 H        -3.595960         0.647799        -1.315137
 H        -1.845548         2.603747        -1.788160
 H        -3.206635         2.935190        -0.926218
 H        -1.203461         3.072307         0.931839
