19
Iteration:  3999charge 0 multiplicity 1
 O         0.518971         0.723938         0.305825
 C        -0.789880         1.075153         0.629618
 C        -1.213227         0.951462         2.096686
 C        -2.502243         1.265564         1.297373
 O        -3.881743         1.445465         1.922921
 C        -2.278762         0.302124         0.218167
 C        -2.569069         0.655786        -1.196630
 C        -2.122874         2.270090        -1.120307
 C        -1.665572         2.321936         0.358320
 H         0.476756        -0.040213        -0.149046
 H        -1.144008        -0.110718         2.461256
 H        -1.044729         1.616214         2.903615
 H        -3.936024         2.377600         1.993839
 H        -2.243737        -0.772234         0.530156
 H        -1.947037        -0.039750        -1.759551
 H        -3.704967         0.690718        -1.388712
 H        -1.362278         2.503811        -1.843506
 H        -3.103491         2.747251        -1.272000
 H        -1.484454         3.383389         0.782156
