19
Iteration:  1455
 O         0.434755         0.693100        -0.074704
 C        -0.821916         0.913385         0.675268
 C        -1.245643         1.044491         2.207980
 C        -2.559477         1.290337         1.412803
 O        -3.816424         1.673907         1.906422
 C        -2.192349         0.195993         0.258990
 C        -2.375257         0.720084        -1.239352
 C        -2.211078         2.227096        -1.040411
 C        -1.796724         2.186469         0.408788
 H         1.059473         1.011347         0.689849
 H        -1.219810         0.147752         2.780469
 H        -1.072105         2.087886         2.785403
 H        -4.005574         1.009886         2.486978
 H        -2.300526        -0.834757         0.444228
 H        -1.667686         0.031684        -1.755427
 H        -3.280295         0.413152        -1.732212
 H        -1.398902         2.586841        -1.647662
 H        -3.101995         2.772634        -1.253517
 H        -1.481882         3.141965         0.985862
