19
Iteration:  2116
 O         0.402896         0.779714         0.070811
 C        -0.825183         0.981509         0.654781
 C        -1.279947         0.903373         2.149722
 C        -2.520141         1.361791         1.285521
 O        -3.828525         1.660027         1.815995
 C        -2.106542         0.192240         0.276075
 C        -2.414317         0.654645        -1.075828
 C        -2.275320         2.268116        -1.044072
 C        -1.693935         2.263816         0.364620
 H         0.666139        -0.068305         0.164656
 H        -1.332688        -0.208332         2.461050
 H        -1.046393         1.672213         2.943639
 H        -3.904502         0.945766         2.451375
 H        -2.196448        -0.830301         0.624045
 H        -1.593377         0.184991        -1.652718
 H        -3.389107         0.357621        -1.407256
 H        -1.470208         2.526365        -1.676115
 H        -3.223014         2.896649        -1.046749
 H        -1.319328         3.169555         0.920406
