19
Iteration:  2149charge 0 multiplicity 1
 O         0.419416         0.731421         0.173324
 C        -0.778449         0.964035         0.681691
 C        -1.173180         1.007559         2.202494
 C        -2.429941         1.318466         1.248323
 O        -3.858292         1.619617         1.688640
 C        -2.116165         0.195633         0.212463
 C        -2.540819         0.699069        -1.214471
 C        -2.358212         2.263192        -0.919676
 C        -1.637439         2.237883         0.410455
 H         0.689555        -0.270263         0.407246
 H        -0.953028         0.034566         2.773556
 H        -0.959190         1.951140         2.779254
 H        -4.126184         1.252332         2.604830
 H        -2.219919        -0.872941         0.394501
 H        -1.952322         0.167264        -1.970983
 H        -3.487737         0.293303        -1.366310
 H        -1.899380         2.822541        -1.693722
 H        -3.335692         2.811864        -0.867926
 H        -1.322109         3.145342         0.991574
