19
Iteration:  2097
 O         0.351325         0.870375         0.091367
 C        -0.853503         0.964603         0.708282
 C        -1.249892         0.958310         2.197717
 C        -2.542904         1.278509         1.345175
 O        -3.746846         1.651783         1.858593
 C        -2.172003         0.207823         0.234768
 C        -2.479180         0.684479        -1.297718
 C        -2.122240         2.118508        -1.019054
 C        -1.694697         2.270037         0.445218
 H         0.649451        -0.050087         0.137639
 H        -1.258604        -0.008505         2.694460
 H        -0.764331         1.797451         2.635001
 H        -4.370967         1.137047         2.419952
 H        -2.263363        -0.853223         0.520245
 H        -1.845784         0.125853        -2.079084
 H        -3.599606         0.393766        -1.473418
 H        -1.395879         2.581563        -1.786254
 H        -3.096480         2.668711        -1.149157
 H        -1.352756         3.252062         0.817954
