19
Iteration:   103
 O         0.405989         0.657989         0.263285
 C        -0.812294         1.031935         0.617916
 C        -1.256276         0.918469         2.138330
 C        -2.479859         1.187585         1.327060
 O        -3.743028         1.521618         1.675661
 C        -2.029587         0.227632         0.160212
 C        -2.580799         0.781892        -1.162881
 C        -2.320178         2.310114        -0.889120
 C        -1.741015         2.277480         0.473949
 H         0.280297         0.393725        -0.770253
 H        -0.927993        -0.011472         2.544624
 H        -1.023062         1.730499         2.860371
 H        -3.742703         2.483465         2.056843
 H        -2.076210        -0.866217         0.445501
 H        -1.966479         0.387423        -1.987508
 H        -3.597187         0.420497        -1.317602
 H        -1.413377         2.791444        -1.467844
 H        -3.173680         2.977703        -1.150932
 H        -1.328050         3.162163         1.090302
