19
Iteration:  1332charge 0 multiplicity 1
 O         0.573786         0.684778         0.133039
 C        -0.803230         0.932184         0.619160
 C        -1.343510         0.906692         2.128979
 C        -2.521374         1.361557         1.330042
 O        -3.808645         1.627228         1.750464
 C        -2.057205         0.232528         0.241022
 C        -2.600278         0.636210        -1.078814
 C        -2.276127         2.235073        -0.982663
 C        -1.696736         2.346397         0.447995
 H         0.606298         1.345903        -0.672587
 H        -1.378411        -0.108443         2.627008
 H        -0.844210         1.681663         2.973208
 H        -4.128040         0.958185         2.364772
 H        -2.095342        -0.861588         0.560972
 H        -2.089470         0.250667        -1.956977
 H        -3.682292         0.398396        -1.232608
 H        -1.532217         2.568923        -1.681573
 H        -3.181715         2.801945        -1.145794
 H        -1.330160         3.338478         0.867495
