19
Iteration:   871charge 0 multiplicity 1
 O         0.470895         0.734080         0.194948
 C        -0.782790         1.035407         0.610200
 C        -1.227304         0.909966         2.069444
 C        -2.525343         1.215970         1.276116
 O        -3.734516         1.569548         1.794961
 C        -2.112906         0.236921         0.206435
 C        -2.737558         0.730784        -1.112073
 C        -2.181313         2.328801        -0.978427
 C        -1.696179         2.302401         0.444144
 H         0.877238         0.041639         0.667743
 H        -1.252624        -0.007807         2.534783
 H        -0.892861         1.654816         2.779711
 H        -4.359208         0.765950         2.041699
 H        -1.977954        -0.856345         0.365823
 H        -2.437872         0.162093        -1.993514
 H        -3.845122         0.607938        -1.090622
 H        -1.420060         2.505420        -1.772542
 H        -2.972786         3.169052        -1.141894
 H        -1.335601         3.158248         0.886346
