19
Iteration:  1927
 O         0.409865         0.878379         0.067056
 C        -0.881192         0.951577         0.679311
 C        -1.274504         0.990841         2.115275
 C        -2.540189         1.236681         1.280772
 O        -3.698352         1.681136         1.887959
 C        -2.259144         0.117057         0.273509
 C        -2.467232         0.648203        -1.172371
 C        -2.070051         2.210234        -1.048984
 C        -1.777570         2.250418         0.421246
 H         0.824938         0.013471         0.189758
 H        -1.361870         0.046740         2.762449
 H        -1.021497         1.927260         2.770819
 H        -4.059523         0.946292         2.540518
 H        -2.427150        -0.981523         0.473503
 H        -1.816708         0.061360        -1.827533
 H        -3.441758         0.675859        -1.643646
 H        -1.148981         2.587517        -1.587857
 H        -2.936334         2.885307        -1.236431
 H        -1.755938         3.209983         0.997574
