19
Iteration:  4174
 O         0.500792         0.808331         0.095055
 C        -0.826231         1.019392         0.671411
 C        -1.302874         1.035058         2.196545
 C        -2.554472         1.367647         1.283904
 O        -3.812695         1.577108         1.875531
 C        -2.135660         0.155996         0.305312
 C        -2.510620         0.602790        -1.068813
 C        -2.168234         2.134445        -1.091304
 C        -1.710353         2.269693         0.329437
 H         1.017678         0.287776         0.842609
 H        -1.270100         0.046126         2.679990
 H        -0.757344         1.798584         2.693421
 H        -4.514774         1.590960         1.131182
 H        -2.296721        -0.916466         0.432817
 H        -2.102374         0.035786        -1.838881
 H        -3.583535         0.524153        -1.348783
 H        -1.563342         2.634373        -1.828198
 H        -3.072387         2.738401        -1.237006
 H        -1.362330         3.250725         0.738545
