19
Iteration:  4511charge 0 multiplicity 1
 O         0.527181         0.700200         0.296913
 C        -0.777805         1.035883         0.678660
 C        -1.229301         1.241760         2.161111
 C        -2.515511         1.344081         1.310015
 O        -3.869560         1.578670         1.707677
 C        -1.984784         0.164324         0.329524
 C        -2.614380         0.531654        -1.188313
 C        -2.338442         2.064939        -1.077329
 C        -1.703526         2.228311         0.319033
 H         0.807625         0.809500        -0.671942
 H        -1.302853         0.532159         3.016921
 H        -0.952429         2.221625         2.588660
 H        -3.947175         2.082815         2.564292
 H        -2.189288        -0.801041         0.839739
 H        -2.206790         0.038272        -2.055072
 H        -3.718756         0.237630        -1.159427
 H        -1.504442         2.277973        -1.787629
 H        -3.238720         2.702539        -1.083157
 H        -1.301242         3.271558         0.591187
