19
Iteration:  4277
 O         0.528091         0.710165         0.359969
 C        -0.816736         0.947880         0.638746
 C        -1.202058         1.220110         2.059356
 C        -2.524537         1.292077         1.319034
 O        -3.801159         1.557034         1.938483
 C        -2.194346         0.162169         0.270052
 C        -2.551231         0.594120        -1.105423
 C        -2.253008         2.129392        -1.127201
 C        -1.725399         2.284943         0.264345
 H         0.715374         1.149386        -0.462309
 H        -1.118134         0.492750         2.851567
 H        -0.941694         2.214776         2.480470
 H        -4.348866         1.675821         1.164865
 H        -2.171330        -0.918990         0.426568
 H        -1.884933         0.190782        -1.950065
 H        -3.580386         0.400459        -1.419395
 H        -1.433770         2.164642        -1.873441
 H        -3.154845         2.714549        -1.193200
 H        -1.501567         3.238897         0.701487
