19
Iteration:   323
 O         0.492081         0.701913         0.251967
 C        -0.818738         0.996895         0.604184
 C        -1.299878         0.980864         2.070752
 C        -2.526788         1.294823         1.281832
 O        -3.814565         1.498123         1.891849
 C        -2.147692         0.181541         0.207170
 C        -2.555440         0.736182        -1.148284
 C        -2.213838         2.258674        -0.998198
 C        -1.680465         2.275165         0.383214
 H         0.556621         0.866156        -0.691432
 H        -1.428210        -0.029549         2.561833
 H        -0.940047         1.702694         2.816943
 H        -3.730918         2.282880         2.425029
 H        -2.240294        -0.939023         0.493010
 H        -1.890587         0.315774        -1.943509
 H        -3.563776         0.492444        -1.564348
 H        -1.445839         2.565625        -1.704971
 H        -3.109008         2.856631        -1.126860
 H        -1.135353         3.161966         0.941195
