19
Iteration:  4760charge 0 multiplicity 1
 O         0.465315         0.844348         0.087423
 C        -0.807824         1.023468         0.709977
 C        -1.229363         1.173399         2.201124
 C        -2.592388         1.285876         1.381528
 O        -3.868544         1.716841         1.690554
 C        -2.038909         0.150597         0.351707
 C        -2.437085         0.526890        -1.038073
 C        -2.195829         2.045030        -1.086603
 C        -1.776115         2.219488         0.342765
 H         0.292274         0.103305        -0.429281
 H        -1.270649         0.246210         2.838084
 H        -1.007801         2.096075         2.745976
 H        -4.184522         1.255338         2.471057
 H        -2.066664        -0.909736         0.679016
 H        -2.020654        -0.170513        -1.819028
 H        -3.495387         0.280594        -1.184671
 H        -1.473241         2.455280        -1.916784
 H        -3.068828         2.578819        -1.516374
 H        -1.320292         3.175132         0.643657
