19
Iteration:  2522charge 0 multiplicity 1
 O         0.475747         0.630024         0.277482
 C        -0.810928         1.030733         0.589336
 C        -1.279543         0.898964         2.048049
 C        -2.522631         1.339025         1.284476
 O        -3.775651         1.659257         1.783792
 C        -2.047555         0.268633         0.227528
 C        -2.567332         0.605312        -1.096147
 C        -2.293356         2.255689        -0.976116
 C        -1.711379         2.337269         0.426188
 H         0.453505         0.813481        -0.745028
 H        -1.235590         0.029168         2.689864
 H        -0.930683         1.722777         2.654148
 H        -4.122866         0.726476         2.207353
 H        -1.960889        -0.723248         0.687039
 H        -1.855668         0.169347        -1.949686
 H        -3.568031         0.150372        -1.298829
 H        -1.513740         2.586920        -1.717437
 H        -3.122247         2.930188        -1.187775
 H        -1.550174         3.316691         0.954328
