19
Iteration:  3990
 O         0.529891         0.737876         0.229847
 C        -0.796892         1.064990         0.651080
 C        -1.211156         0.937656         2.101676
 C        -2.568152         1.286453         1.314743
 O        -3.874937         1.462866         1.878120
 C        -2.243411         0.273541         0.266147
 C        -2.571856         0.706841        -1.134447
 C        -2.106979         2.244424        -1.101057
 C        -1.677809         2.287185         0.395888
 H         0.343268        -0.025365        -0.194668
 H        -1.125011        -0.085715         2.567859
 H        -0.642963         1.698080         2.696862
 H        -4.232641         2.312506         1.702374
 H        -2.294110        -0.751396         0.590780
 H        -2.007823        -0.068355        -1.772891
 H        -3.489597         0.575316        -1.701357
 H        -1.270718         2.554749        -1.776904
 H        -2.997169         2.895374        -1.338657
 H        -1.645940         3.242286         0.890029
