19
Iteration:  2416charge 0 multiplicity 1
 O         0.422838         0.800881         0.111617
 C        -0.896195         0.889176         0.665918
 C        -1.261515         1.063680         2.098648
 C        -2.524328         1.351551         1.306824
 O        -3.822840         1.489503         1.821558
 C        -2.140650         0.273214         0.250904
 C        -2.626197         0.710774        -1.113082
 C        -2.004568         2.257943        -1.030771
 C        -1.693561         2.247611         0.406609
 H         0.823321        -0.126065         0.461698
 H        -1.272762         0.051709         2.620665
 H        -0.636560         1.863741         2.588181
 H        -4.145973         0.589835         2.226272
 H        -2.231165        -0.731899         0.648327
 H        -2.280640         0.041239        -1.852212
 H        -3.657782         0.876944        -1.172440
 H        -1.214659         2.443151        -1.798461
 H        -2.893640         2.845750        -1.133541
 H        -1.328951         3.155236         0.764876
