19
Iteration:  1183
 O         0.470851         0.688748         0.177382
 C        -0.830412         0.957575         0.638384
 C        -1.289180         0.900841         2.177428
 C        -2.463221         1.265949         1.275725
 O        -3.698483         1.643563         1.721633
 C        -2.106823         0.174890         0.217028
 C        -2.658016         0.765330        -1.102268
 C        -2.232626         2.273058        -1.006035
 C        -1.711515         2.269447         0.443484
 H         0.904606         1.525458         0.088377
 H        -1.349837        -0.126745         2.650491
 H        -0.858156         1.643057         2.787183
 H        -4.206123         0.746565         1.965210
 H        -2.291957        -0.815809         0.603653
 H        -2.271485         0.215395        -2.007029
 H        -3.708167         0.598276        -0.989594
 H        -1.532716         2.608295        -1.862835
 H        -3.136515         2.976100        -1.068578
 H        -1.399354         3.200163         1.029305
