19
Iteration:   419charge 0 multiplicity 1
 O         0.463262         0.595399         0.105084
 C        -0.789974         0.999762         0.623206
 C        -1.220250         0.982063         2.087602
 C        -2.520261         1.241459         1.299685
 O        -3.859468         1.555009         1.650933
 C        -2.080574         0.219820         0.215293
 C        -2.585465         0.738671        -1.053416
 C        -2.254001         2.246450        -0.924418
 C        -1.723992         2.342099         0.537891
 H         1.184589         1.154100         0.224921
 H        -1.148988         0.039277         2.727322
 H        -0.865599         1.782368         2.788190
 H        -3.765496         2.177020         2.295445
 H        -1.969972        -0.904115         0.451488
 H        -2.097320         0.199884        -1.910127
 H        -3.672031         0.522290        -1.148449
 H        -1.545320         2.536911        -1.690164
 H        -3.229445         2.769105        -1.021539
 H        -1.461754         3.236224         1.055726
