19
Iteration:  3495
 O         0.420801         0.733257         0.197049
 C        -0.871461         0.957466         0.682271
 C        -1.184413         0.932812         2.108350
 C        -2.552114         1.264290         1.324047
 O        -3.753582         1.541466         1.864083
 C        -2.146566         0.247561         0.193339
 C        -2.558603         0.714541        -1.202835
 C        -2.191022         2.264097        -1.006718
 C        -1.683471         2.269074         0.387625
 H         0.947903         0.744236         0.968741
 H        -1.251017        -0.045870         2.601776
 H        -0.700308         1.736539         2.731481
 H        -4.452347         1.874917         1.300739
 H        -2.432987        -0.771113         0.390295
 H        -1.925934         0.124497        -1.892650
 H        -3.623470         0.628815        -1.592128
 H        -1.538404         2.733135        -1.737649
 H        -3.220516         2.746980        -1.044891
 H        -1.224531         3.203347         0.775895
