19
Iteration:   988
 O         0.465271         0.744292         0.060116
 C        -0.862232         0.941349         0.636129
 C        -1.312846         0.925993         2.162322
 C        -2.529947         1.339463         1.301410
 O        -3.807313         1.569211         1.925113
 C        -2.183006         0.263254         0.253075
 C        -2.468347         0.727477        -1.203234
 C        -2.203844         2.300494        -1.032662
 C        -1.645933         2.286454         0.426849
 H         0.662082        -0.146362         0.155377
 H        -1.341017        -0.136118         2.740378
 H        -0.855090         1.618158         2.850770
 H        -4.014736         0.599353         2.124033
 H        -2.443593        -0.788166         0.619390
 H        -1.804197         0.337452        -1.972803
 H        -3.492613         0.432146        -1.585891
 H        -1.544014         2.709117        -1.762099
 H        -3.045386         2.934361        -1.017096
 H        -1.175558         3.195538         0.865525
