19
Iteration:   319charge 0 multiplicity 1
 O         0.525205         0.709978         0.240223
 C        -0.782104         1.012925         0.632321
 C        -1.306322         0.956693         2.071442
 C        -2.532300         1.311115         1.279397
 O        -3.829203         1.490178         1.872615
 C        -2.221139         0.158092         0.216449
 C        -2.551361         0.752251        -1.135506
 C        -2.243718         2.247649        -0.997238
 C        -1.639466         2.286601         0.383190
 H         0.623159         0.733328        -0.752756
 H        -1.450147        -0.009896         2.543823
 H        -0.828313         1.752185         2.752540
 H        -3.810438         2.256963         2.540526
 H        -2.185678        -0.878238         0.487551
 H        -1.816137         0.297040        -1.846967
 H        -3.511576         0.485113        -1.578130
 H        -1.544825         2.597200        -1.752168
 H        -3.105922         2.924162        -1.160164
 H        -1.190944         3.101758         0.875881
