19
Iteration:  3653charge 0 multiplicity 1
 O         0.436856         0.766945         0.046501
 C        -0.885691         0.933701         0.677614
 C        -1.232120         0.888438         2.178299
 C        -2.513421         1.285009         1.346974
 O        -3.844904         1.619009         1.776855
 C        -2.142693         0.219682         0.266760
 C        -2.528764         0.757902        -1.180016
 C        -2.159410         2.228470        -0.968865
 C        -1.644123         2.258086         0.472804
 H         1.173396         0.822957         0.596070
 H        -1.404828        -0.106613         2.636926
 H        -0.894860         1.712212         2.806535
 H        -4.465074         1.277735         1.175935
 H        -2.366716        -0.856668         0.369767
 H        -1.897962         0.132359        -1.868866
 H        -3.627712         0.678086        -1.266906
 H        -1.488474         2.652606        -1.740567
 H        -3.092394         2.756262        -1.090403
 H        -1.132573         3.076944         0.993339
