19
Iteration:  3728charge 0 multiplicity 1
 O         0.485640         0.666641         0.236581
 C        -0.874597         0.977590         0.593540
 C        -1.308776         0.984632         2.179205
 C        -2.456913         1.273579         1.293202
 O        -3.715689         1.523023         1.900124
 C        -2.210766         0.242790         0.139271
 C        -2.537078         0.815370        -1.201045
 C        -2.226816         2.277213        -1.009780
 C        -1.697631         2.286647         0.388254
 H         0.883291         0.190162         1.063679
 H        -1.271652        -0.038726         2.658903
 H        -0.972301         1.912264         2.601538
 H        -4.400567         1.047667         1.304118
 H        -2.249547        -0.839340         0.348159
 H        -1.989497         0.216159        -1.995264
 H        -3.584406         0.511018        -1.388233
 H        -1.497527         2.689998        -1.713152
 H        -3.110192         2.943465        -1.206112
 H        -1.371274         3.214647         0.860898
