19
Iteration:   184
 O         0.422225         0.703704         0.047750
 C        -0.801638         0.983450         0.716303
 C        -1.302687         0.927550         2.167897
 C        -2.586877         1.209470         1.305111
 O        -3.839156         1.544431         1.881545
 C        -1.995375         0.242084         0.180573
 C        -2.558838         0.798175        -1.218392
 C        -2.191671         2.246691        -1.057365
 C        -1.758983         2.252021         0.454266
 H         1.299737         0.769165         0.675032
 H        -1.223247        -0.054629         2.731135
 H        -1.085043         1.806642         2.783298
 H        -3.713852         2.302785         2.577808
 H        -1.975517        -0.825302         0.393468
 H        -2.241107         0.362823        -2.196210
 H        -3.638467         0.502349        -1.179753
 H        -1.111351         2.267578        -1.514416
 H        -2.874399         3.078692        -1.443459
 H        -1.422291         3.072998         1.024875
