19
Iteration:  2217charge 0 multiplicity 1
 O         0.473760         0.908152         0.122515
 C        -0.888343         0.961354         0.578284
 C        -1.276419         0.899821         2.144797
 C        -2.473507         1.236682         1.393136
 O        -3.765812         1.646505         1.794429
 C        -2.182974         0.212849         0.226412
 C        -2.634127         0.682934        -1.023388
 C        -2.109473         2.189040        -1.057069
 C        -1.670352         2.263699         0.415314
 H         0.975767         0.135588         0.450810
 H        -1.464033        -0.165802         2.511373
 H        -1.053309         1.751676         2.762991
 H        -4.388563         0.852404         1.772715
 H        -2.327974        -0.838241         0.498132
 H        -2.240362         0.084157        -1.866474
 H        -3.713195         0.591582        -1.204700
 H        -1.238032         2.379592        -1.776566
 H        -2.731656         2.982786        -1.525745
 H        -1.320217         3.182691         0.887016
