19
Iteration:  3104charge 0 multiplicity 1
 O         0.549770         0.734150         0.280386
 C        -0.810767         0.922710         0.622162
 C        -1.271608         0.964768         2.135989
 C        -2.528714         1.285132         1.304574
 O        -3.772386         1.539238         1.700371
 C        -2.161745         0.192782         0.277836
 C        -2.690619         0.749043        -1.141010
 C        -2.245370         2.262275        -1.025382
 C        -1.603394         2.249012         0.422138
 H         0.549215         1.106219        -0.565658
 H        -1.150554        -0.000347         2.589776
 H        -0.984262         1.861586         2.714859
 H        -4.213802         1.287608         2.615682
 H        -2.320204        -0.879040         0.495668
 H        -2.040758         0.329740        -1.900154
 H        -3.761306         0.689666        -1.416770
 H        -1.413165         2.530456        -1.673409
 H        -2.869806         3.090290        -1.170261
 H        -1.481303         3.267871         0.774225
