19
Iteration:  2590
 O         0.435252         0.780171         0.192185
 C        -0.784973         1.020021         0.760334
 C        -1.228561         0.860590         2.167478
 C        -2.485669         1.276658         1.279107
 O        -3.782939         1.633507         1.750579
 C        -2.114885         0.270912         0.276109
 C        -2.644442         0.674905        -1.097913
 C        -2.151656         2.167059        -1.114671
 C        -1.722730         2.292829         0.396973
 H         0.484119         0.947348        -0.711997
 H        -1.191261        -0.155330         2.647882
 H        -0.827171         1.580599         2.917906
 H        -4.181863         0.945502         2.185025
 H        -2.159144        -0.751544         0.593792
 H        -2.488355        -0.099973        -2.008480
 H        -3.717084         0.736773        -1.063207
 H        -1.309840         2.409155        -1.824802
 H        -2.882719         2.948559        -1.319470
 H        -1.563914         3.243788         0.803019
