19
Iteration:  2824charge 0 multiplicity 1
 O         0.450302         0.612285         0.271068
 C        -0.861694         1.024230         0.624548
 C        -1.156925         1.042733         2.118969
 C        -2.533112         1.326888         1.280124
 O        -3.816184         1.568945         1.768974
 C        -2.048270         0.225579         0.281642
 C        -2.470589         0.721046        -1.169238
 C        -2.303167         2.255969        -1.029702
 C        -1.745770         2.328705         0.405183
 H         0.512079         0.245415        -0.676975
 H        -1.154814         0.046543         2.654261
 H        -0.698105         1.769550         2.816765
 H        -4.160680         0.938624         2.346176
 H        -2.213259        -0.807255         0.588248
 H        -2.011443         0.041237        -1.959743
 H        -3.497138         0.313604        -1.287668
 H        -1.609025         2.606898        -1.730395
 H        -3.330372         2.716052        -1.097995
 H        -1.545194         3.308216         0.880471
