19
Iteration:  3219
 O         0.474707         0.661039         0.283135
 C        -0.787883         1.036760         0.690105
 C        -1.215701         0.978501         2.076070
 C        -2.579105         1.286121         1.254644
 O        -3.783595         1.474940         1.883818
 C        -2.114129         0.280472         0.199480
 C        -2.588859         0.737054        -1.194979
 C        -2.254302         2.294073        -0.987572
 C        -1.667608         2.281563         0.403018
 H         0.532378         0.152627        -0.484408
 H        -1.447833        -0.060962         2.402175
 H        -0.840360         1.633815         2.873458
 H        -4.387100         1.912671         1.173622
 H        -2.129625        -0.801309         0.465063
 H        -1.935406         0.146565        -1.845807
 H        -3.650099         0.480778        -1.339140
 H        -1.378877         2.650346        -1.588201
 H        -3.031202         3.044130        -1.295287
 H        -1.295183         3.103238         1.000354
