19
Iteration:  4584
 O         0.561542         0.807291         0.214329
 C        -0.813389         0.985516         0.689673
 C        -1.268885         1.149510         2.142862
 C        -2.525557         1.327279         1.296378
 O        -3.887814         1.603940         1.744317
 C        -2.078634         0.156223         0.413309
 C        -2.513786         0.532544        -1.076805
 C        -2.301156         2.098002        -1.121136
 C        -1.730595         2.221552         0.308505
 H         0.464961         0.379382        -0.749117
 H        -0.988100         0.288124         2.777786
 H        -1.014516         2.039618         2.705007
 H        -3.816348         2.510933         2.067584
 H        -2.159372        -0.850250         0.793005
 H        -1.758515         0.116700        -1.857205
 H        -3.538028         0.336737        -1.306847
 H        -1.476148         2.326478        -1.836701
 H        -3.214458         2.655367        -1.280716
 H        -1.495900         3.141082         0.829140
