19
Iteration:   562charge 0 multiplicity 1
 O         0.508298         0.744603         0.129266
 C        -0.722510         1.022618         0.674350
 C        -1.192669         0.945683         2.156573
 C        -2.495780         1.259129         1.312472
 O        -3.874285         1.468855         1.643983
 C        -2.154928         0.250997         0.253044
 C        -2.689192         0.754137        -1.043093
 C        -2.206841         2.227223        -1.005581
 C        -1.656053         2.309735         0.483938
 H         0.435087        -0.055644        -0.356174
 H        -0.944473        -0.037822         2.657578
 H        -0.828782         1.814862         2.715046
 H        -3.974516         2.258637         2.096034
 H        -2.308141        -0.893754         0.504778
 H        -2.247911         0.180894        -1.876087
 H        -3.802463         0.713431        -0.990825
 H        -1.391113         2.408105        -1.752016
 H        -3.109765         2.904326        -1.011249
 H        -1.552721         3.228790         0.965717
