19
Iteration:  3248
 O         0.484248         0.777198         0.173412
 C        -0.797605         0.951747         0.749915
 C        -1.291669         0.882634         2.142842
 C        -2.507530         1.279834         1.309194
 O        -3.787625         1.616637         1.796436
 C        -2.025368         0.194009         0.193805
 C        -2.588050         0.794792        -1.122872
 C        -2.208233         2.253695        -1.016329
 C        -1.707673         2.234923         0.461905
 H         0.527144         0.349462        -0.681802
 H        -1.574322        -0.110904         2.580759
 H        -0.893582         1.603371         2.858707
 H        -4.543040         1.380455         1.085447
 H        -2.312732        -0.862578         0.408063
 H        -2.247614         0.185483        -1.988131
 H        -3.670759         0.732355        -1.033347
 H        -1.421032         2.569919        -1.746382
 H        -3.097868         2.789852        -1.305491
 H        -1.387667         3.140938         1.003697
