19
Iteration:   818charge 0 multiplicity 1
 O         0.322174         0.783640         0.042898
 C        -0.860093         0.993028         0.657573
 C        -1.235039         0.901250         2.122944
 C        -2.521206         1.204424         1.316648
 O        -3.700939         1.639347         1.804976
 C        -2.187883         0.177315         0.259484
 C        -2.440683         0.791885        -1.138145
 C        -2.188670         2.241067        -0.928382
 C        -1.713750         2.274945         0.457188
 H         0.743644        -0.015733         0.181879
 H        -1.080551        -0.029098         2.679118
 H        -0.989466         1.831435         2.782664
 H        -4.448460         0.925663         1.619178
 H        -2.216000        -0.857400         0.387342
 H        -1.800541         0.405237        -1.903101
 H        -3.434030         0.576817        -1.333177
 H        -1.462619         2.520094        -1.697891
 H        -3.134997         2.876896        -0.878808
 H        -1.349215         3.173686         0.936665
