19
Iteration:   151
 O         0.449195         0.693014         0.181737
 C        -0.800974         0.949467         0.679360
 C        -1.213445         0.858546         2.117799
 C        -2.528397         1.350189         1.322166
 O        -3.806100         1.459995         1.727315
 C        -2.223387         0.297839         0.266255
 C        -2.550239         0.766498        -1.189462
 C        -2.299458         2.268110        -1.006508
 C        -1.595163         2.265256         0.427467
 H         0.884340         1.535164         0.219460
 H        -1.235881        -0.133513         2.680158
 H        -0.780658         1.611530         2.787961
 H        -3.899461         1.774210         2.556247
 H        -2.474010        -0.709169         0.655047
 H        -1.847384         0.380821        -1.957236
 H        -3.586062         0.426108        -1.449553
 H        -1.623534         2.551501        -1.882622
 H        -3.095601         3.060069        -1.049229
 H        -1.101438         3.146873         0.794415
