19
Iteration:  2005charge 0 multiplicity 1
 O         0.528650         0.744685         0.189462
 C        -0.884315         0.987612         0.601898
 C        -1.160188         1.088268         2.196438
 C        -2.548612         1.265083         1.324232
 O        -3.808893         1.637477         1.627952
 C        -2.064018         0.141734         0.205309
 C        -2.623676         0.711992        -1.110652
 C        -2.336648         2.251012        -0.921500
 C        -1.636059         2.205722         0.428882
 H         0.622574        -0.281505         0.507809
 H        -1.120539         0.086811         2.699311
 H        -0.612071         1.989595         2.631189
 H        -4.294093         0.791650         2.052312
 H        -2.058551        -0.938038         0.378795
 H        -2.165888         0.222125        -2.010066
 H        -3.683102         0.659061        -1.212602
 H        -1.768005         2.735066        -1.694713
 H        -3.240675         2.900425        -0.736769
 H        -1.150338         3.085990         0.912648
