19
Iteration:  1616
 O         0.387417         0.732957         0.039573
 C        -0.883572         0.988519         0.668071
 C        -1.185266         1.009110         2.170731
 C        -2.559154         1.253910         1.230917
 O        -3.732237         1.688024         1.932385
 C        -2.236462         0.178428         0.244406
 C        -2.404104         0.711912        -1.195733
 C        -2.164677         2.168792        -1.007553
 C        -1.796228         2.233709         0.377572
 H         1.050029         0.695788         0.823047
 H        -1.290510         0.105584         2.737974
 H        -1.015122         1.953328         2.701696
 H        -3.910998         0.926248         2.434127
 H        -2.351740        -0.929039         0.645097
 H        -1.650348         0.149006        -1.740309
 H        -3.358313         0.493115        -1.751569
 H        -1.336561         2.616567        -1.668006
 H        -3.133600         2.714973        -1.173559
 H        -1.735096         3.184997         0.880833
