19
Iteration:  3643charge 0 multiplicity 1
 O         0.474552         0.697848         0.071186
 C        -0.787243         0.982971         0.654018
 C        -1.278342         0.921395         2.111862
 C        -2.556427         1.250942         1.379730
 O        -3.856615         1.648506         1.829035
 C        -2.159270         0.230022         0.225770
 C        -2.542946         0.769576        -1.184026
 C        -2.156760         2.220722        -0.990083
 C        -1.726536         2.213394         0.528166
 H         1.089999         0.902033         0.762241
 H        -0.962041        -0.023021         2.542777
 H        -0.715940         1.634957         2.720733
 H        -4.455988         1.299683         1.128811
 H        -2.039587        -0.821845         0.572754
 H        -2.040485         0.415562        -2.129480
 H        -3.595331         0.497325        -1.458216
 H        -1.290291         2.474229        -1.669021
 H        -2.919651         2.951186        -1.104753
 H        -1.473201         3.233060         0.837745
