19
Iteration:  4443charge 0 multiplicity 1
 O         0.457368         0.798582         0.243632
 C        -0.809096         1.043537         0.661376
 C        -1.281683         1.180898         2.155202
 C        -2.523531         1.264335         1.286108
 O        -3.797814         1.620780         1.848557
 C        -2.098838         0.157313         0.341504
 C        -2.507767         0.475963        -1.076076
 C        -2.177817         2.073294        -1.146034
 C        -1.775581         2.211284         0.289307
 H         0.388006         1.097643        -0.725291
 H        -1.217509         0.317136         2.860944
 H        -0.974476         2.002047         2.741259
 H        -3.851269         2.528053         1.547531
 H        -2.221835        -0.844734         0.742967
 H        -2.148137        -0.173373        -1.930338
 H        -3.581939         0.569074        -1.181058
 H        -1.251317         2.397266        -1.830111
 H        -3.143047         2.534690        -1.316875
 H        -1.457344         3.149948         0.798040
