19
Iteration:  3187
 O         0.489827         0.668059         0.269939
 C        -0.853529         0.885120         0.647523
 C        -1.256050         1.045692         2.202319
 C        -2.521838         1.376580         1.332621
 O        -3.832978         1.398419         1.888675
 C        -2.161457         0.266179         0.171227
 C        -2.516992         0.726632        -1.260336
 C        -2.279450         2.304805        -1.053897
 C        -1.604495         2.261363         0.378532
 H         0.583510         0.815139        -0.747376
 H        -1.502549         0.147934         2.802613
 H        -0.752443         1.720210         2.907016
 H        -4.088993         2.351919         1.838877
 H        -2.309161        -0.807515         0.388422
 H        -1.876871         0.164712        -1.984068
 H        -3.526947         0.449732        -1.625170
 H        -1.459025         2.795290        -1.594180
 H        -3.254944         2.964731        -0.991686
 H        -0.996182         3.098658         0.771151
