19
Iteration:  2467
 O         0.504815         0.821200         0.204449
 C        -0.851440         0.908035         0.636902
 C        -1.217548         0.944398         2.103229
 C        -2.485803         1.305074         1.264555
 O        -3.789946         1.736091         1.716827
 C        -2.138784         0.121373         0.214982
 C        -2.471354         0.709696        -1.111062
 C        -2.306520         2.202605        -0.884919
 C        -1.707118         2.219464         0.423595
 H         0.483242         0.017717        -0.321979
 H        -1.346327         0.011046         2.660363
 H        -0.894445         1.836373         2.621114
 H        -4.173203         0.988701         2.324442
 H        -2.309737        -0.903706         0.578521
 H        -2.003765         0.233749        -2.074066
 H        -3.574239         0.642063        -1.307932
 H        -1.697205         2.716272        -1.650179
 H        -3.330263         2.599293        -0.939424
 H        -1.440278         3.198925         0.909844
