19
Iteration:   713charge 0 multiplicity 1
 O         0.457540         0.611633         0.205648
 C        -0.765835         0.995361         0.686398
 C        -1.279736         0.917107         2.130728
 C        -2.486796         1.246968         1.262689
 O        -3.778200         1.419292         1.768561
 C        -2.104176         0.234749         0.207511
 C        -2.721120         0.837379        -1.068155
 C        -2.251634         2.296144        -0.987006
 C        -1.623323         2.343162         0.369429
 H         0.841527         1.422457        -0.093035
 H        -1.162862        -0.017134         2.691198
 H        -0.871638         1.651626         2.772231
 H        -3.916782         2.325891         1.976609
 H        -2.243287        -0.873751         0.411663
 H        -2.297887         0.269626        -1.943942
 H        -3.816392         0.587262        -1.166070
 H        -1.453751         2.518722        -1.752081
 H        -2.967583         3.051680        -1.277050
 H        -1.189506         3.275159         0.885348
