19
Iteration:  2132charge 0 multiplicity 1
 O         0.527943         0.715043         0.051467
 C        -0.802384         0.985587         0.663598
 C        -1.288868         0.956760         2.165458
 C        -2.559601         1.310823         1.381678
 O        -3.820010         1.617009         1.716768
 C        -2.131037         0.286939         0.282701
 C        -2.467503         0.683947        -1.151690
 C        -2.322609         2.181617        -0.988670
 C        -1.673816         2.314157         0.448849
 H         0.721374        -0.258071         0.309609
 H        -1.381517         0.043679         2.723479
 H        -0.749888         1.570018         2.859588
 H        -4.037229         1.170439         2.602727
 H        -2.260774        -0.777035         0.585979
 H        -1.704065         0.415121        -1.939958
 H        -3.543446         0.408776        -1.609140
 H        -1.731203         2.731011        -1.838321
 H        -3.330090         2.611975        -0.988629
 H        -1.357904         3.315562         0.681902
