19
Iteration:  1133charge 0 multiplicity 1
 O         0.377156         0.719261         0.178762
 C        -0.889646         0.851368         0.651645
 C        -1.285850         0.971408         2.108587
 C        -2.518923         1.271752         1.303724
 O        -3.697703         1.588215         1.876804
 C        -2.226793         0.245596         0.193847
 C        -2.368136         0.793638        -1.183140
 C        -2.203433         2.281650        -0.995132
 C        -1.739480         2.285067         0.443510
 H         0.239396         0.470856        -0.768665
 H        -1.305981         0.010788         2.677371
 H        -0.983435         1.960104         2.519940
 H        -3.837743         1.077744         2.606699
 H        -2.316309        -0.878793         0.439485
 H        -1.655689         0.192596        -1.747335
 H        -3.392153         0.451084        -1.557837
 H        -1.469119         2.775208        -1.545438
 H        -3.103565         2.699058        -1.357484
 H        -1.259605         3.093489         0.882780
