19
Iteration:   174
 O         0.412970         0.670433         0.081627
 C        -0.831037         1.041312         0.599307
 C        -1.337544         0.932659         2.124342
 C        -2.559838         1.230314         1.326566
 O        -3.801614         1.544841         1.833324
 C        -2.030886         0.157696         0.173192
 C        -2.530305         0.743075        -1.146800
 C        -2.123030         2.278663        -0.992655
 C        -1.772973         2.266465         0.464553
 H         1.084481         1.103471         0.754832
 H        -1.272731        -0.052525         2.647831
 H        -1.025070         1.749667         2.814131
 H        -3.643290         2.178186         2.665990
 H        -2.011672        -0.886770         0.391380
 H        -2.219882         0.262658        -2.101025
 H        -3.638289         0.739893        -1.086355
 H        -1.339109         2.652829        -1.665120
 H        -2.975418         2.976954        -1.211139
 H        -1.518179         3.190651         0.867616
