19
Iteration:  3199charge 0 multiplicity 1
 O         0.485670         0.696969         0.275746
 C        -0.859388         0.877730         0.649909
 C        -1.323811         0.981484         2.196183
 C        -2.493716         1.382632         1.356539
 O        -3.767958         1.389117         1.869553
 C        -2.221440         0.231133         0.206647
 C        -2.514580         0.770402        -1.209764
 C        -2.195775         2.315123        -1.010079
 C        -1.616932         2.306943         0.316635
 H         0.811914         0.424075        -0.659813
 H        -1.182237         0.058214         2.744752
 H        -0.903975         1.926113         2.575131
 H        -4.352827         2.056396         1.658102
 H        -2.463725        -0.840025         0.373398
 H        -1.820137         0.272692        -1.913111
 H        -3.604066         0.639281        -1.434298
 H        -1.769544         2.768946        -1.922284
 H        -3.294564         2.796507        -1.149895
 H        -1.191226         3.298412         0.655389
