19
Iteration:  2754charge 0 multiplicity 1
 O         0.468256         0.808318         0.247780
 C        -0.759723         1.091313         0.622471
 C        -1.235096         0.865622         2.184431
 C        -2.428271         1.260213         1.371568
 O        -3.798173         1.728259         1.713470
 C        -2.123086         0.205422         0.206809
 C        -2.680231         0.612313        -1.131825
 C        -2.220915         2.127968        -1.055016
 C        -1.734414         2.223542         0.467617
 H         0.792915         1.242234        -0.625885
 H        -1.234977        -0.136070         2.574818
 H        -0.655441         1.479527         2.869045
 H        -4.474871         1.175655         2.241201
 H        -2.137726        -0.868881         0.470903
 H        -2.329145         0.337578        -2.166992
 H        -3.760758         0.592365        -1.208154
 H        -1.302266         2.043877        -1.710613
 H        -2.898654         2.907130        -1.401372
 H        -1.536633         3.184806         0.899519
