19
Iteration:   385charge 0 multiplicity 1
 O         0.444154         0.778106         0.099552
 C        -0.830652         0.858648         0.690496
 C        -1.236472         0.910076         2.184513
 C        -2.499205         1.408820         1.293957
 O        -3.854619         1.436592         1.741729
 C        -2.156061         0.220858         0.255503
 C        -2.641658         0.733910        -1.084356
 C        -2.146753         2.203570        -0.999168
 C        -1.540215         2.287914         0.442460
 H         0.722737         1.645817        -0.213566
 H        -1.603476        -0.016693         2.635160
 H        -0.738063         1.653058         2.864667
 H        -4.135811         2.316907         1.825053
 H        -2.345959        -0.842262         0.534581
 H        -2.201506         0.175642        -1.943170
 H        -3.723769         0.781041        -1.163875
 H        -1.630114         2.634429        -1.877904
 H        -3.099838         2.790723        -1.071079
 H        -1.060854         3.099945         0.858550
