19
Iteration:  3110
 O         0.541042         0.775405         0.255215
 C        -0.772654         0.936859         0.621864
 C        -1.298618         0.970725         2.100484
 C        -2.556843         1.287881         1.310755
 O        -3.799868         1.541550         1.697358
 C        -2.178361         0.168849         0.319701
 C        -2.685805         0.721824        -1.139781
 C        -2.214729         2.299566        -1.030455
 C        -1.551636         2.190448         0.424373
 H         0.626690         1.132769        -0.687273
 H        -1.228885        -0.008015         2.660048
 H        -0.950535         1.789472         2.743836
 H        -4.157991         1.395044         2.535903
 H        -2.436575        -0.845411         0.672037
 H        -2.108901         0.246680        -1.967842
 H        -3.738076         0.634711        -1.471489
 H        -1.404960         2.587489        -1.746019
 H        -3.075685         3.112076        -0.962640
 H        -1.274628         3.138347         1.008041
