19
Iteration:   951charge 0 multiplicity 1
 O         0.306144         0.776608         0.070427
 C        -0.848867         0.967915         0.661151
 C        -1.235176         0.858658         2.246528
 C        -2.532095         1.267722         1.351552
 O        -3.746293         1.644236         1.765868
 C        -2.082574         0.169254         0.228594
 C        -2.457567         0.750068        -1.240044
 C        -2.219425         2.344272        -0.991258
 C        -1.752740         2.196737         0.453431
 H         0.593686        -0.104693        -0.063275
 H        -0.998166        -0.075799         2.702211
 H        -0.751944         1.804821         2.622310
 H        -3.939255         1.274043         2.763776
 H        -2.205666        -0.804371         0.558531
 H        -1.745779         0.350214        -1.965312
 H        -3.426185         0.518728        -1.462033
 H        -1.375937         2.687400        -1.689477
 H        -3.153108         3.002838        -1.166718
 H        -1.420467         3.137445         1.102794
