19
Iteration:  3454charge 0 multiplicity 1
 O         0.472798         0.582253         0.196385
 C        -0.811038         0.991555         0.703524
 C        -1.309490         1.050563         2.159479
 C        -2.540728         1.414407         1.223336
 O        -3.753543         1.393608         1.966633
 C        -2.130440         0.259506         0.174413
 C        -2.569326         0.768393        -1.192448
 C        -2.178061         2.272361        -1.113547
 C        -1.743503         2.350577         0.399357
 H         1.204471         0.334791         0.878422
 H        -1.159318         0.037513         2.585898
 H        -0.791937         1.763686         2.754685
 H        -4.490583         1.377562         1.222442
 H        -2.120867        -0.798529         0.380726
 H        -2.232122         0.146858        -2.062826
 H        -3.689670         0.588752        -1.208295
 H        -1.468016         2.692165        -1.789489
 H        -3.106549         2.854864        -1.088171
 H        -1.261745         3.269896         0.783436
