19
Iteration:  3308charge 0 multiplicity 1
 O         0.438155         0.583574         0.272033
 C        -0.787309         1.055551         0.607885
 C        -1.321644         0.971000         2.118625
 C        -2.557234         1.252082         1.313461
 O        -3.747338         1.518911         1.923267
 C        -1.997752         0.197575         0.185161
 C        -2.575337         0.717398        -1.192952
 C        -2.206345         2.307935        -1.017050
 C        -1.745183         2.382160         0.435931
 H         0.685145         0.928763        -0.552487
 H        -1.343041        -0.005966         2.583452
 H        -0.925890         1.748605         2.826156
 H        -4.439946         1.638656         1.211464
 H        -2.071834        -0.859432         0.451133
 H        -2.077051         0.328630        -2.075823
 H        -3.646892         0.500800        -1.426612
 H        -1.408687         2.440409        -1.743783
 H        -3.110964         2.866290        -1.375704
 H        -1.419440         3.336027         0.891400
