19
Iteration:  4017charge 0 multiplicity 1
 O         0.514117         0.754628         0.350330
 C        -0.857536         0.960681         0.661133
 C        -1.364773         0.964489         2.127243
 C        -2.565625         1.361785         1.278362
 O        -3.752485         1.469682         1.889571
 C        -2.056818         0.237282         0.183238
 C        -2.589063         0.760274        -1.194372
 C        -2.246910         2.207920        -1.117079
 C        -1.646956         2.270120         0.321655
 H         0.420257         0.051769        -0.204792
 H        -1.402961         0.015565         2.654435
 H        -0.732212         1.688835         2.687449
 H        -3.788695         2.060937         2.607570
 H        -2.257115        -0.802187         0.545036
 H        -2.106514         0.314893        -2.069850
 H        -3.627353         0.530572        -1.451423
 H        -1.396351         2.389166        -1.786166
 H        -3.081847         2.904361        -1.260222
 H        -1.278855         3.278685         0.633754
