19
Iteration:  2332charge 0 multiplicity 1
 O         0.595884         0.827307         0.212427
 C        -0.773617         0.912517         0.677345
 C        -1.262459         0.906433         2.148818
 C        -2.525635         1.237271         1.247552
 O        -3.728419         1.730988         1.699713
 C        -2.241800         0.205352         0.227727
 C        -2.523933         0.693427        -1.220509
 C        -2.383760         2.229520        -0.962674
 C        -1.678831         2.226262         0.445359
 H         0.746970        -0.065628         0.221682
 H        -1.112871         0.034274         2.743486
 H        -1.008161         1.835361         2.693424
 H        -3.952901         1.103307         2.441848
 H        -2.339465        -0.798590         0.686956
 H        -2.064713         0.093423        -2.014374
 H        -3.692841         0.549064        -1.348381
 H        -1.957145         2.826818        -1.760475
 H        -3.402543         2.646628        -0.831482
 H        -1.404877         3.098201         1.109961
