19
Iteration:  4128charge 0 multiplicity 1
 O         0.434498         0.676052         0.255756
 C        -0.828459         0.929961         0.656929
 C        -1.191924         1.078104         2.075054
 C        -2.580335         1.301216         1.295523
 O        -3.808174         1.556235         1.810453
 C        -2.123039         0.257102         0.249948
 C        -2.506948         0.718222        -1.151701
 C        -2.167192         2.136674        -1.090312
 C        -1.759207         2.228152         0.369828
 H         0.991768         1.582574         0.192761
 H        -1.328430         0.158486         2.694940
 H        -0.919370         1.938862         2.664050
 H        -3.911963         1.633077         2.797682
 H        -2.255202        -0.824935         0.502062
 H        -2.046065         0.068508        -1.858683
 H        -3.574291         0.472108        -1.353047
 H        -1.445852         2.567771        -1.757699
 H        -3.052491         2.774077        -1.281278
 H        -1.594570         3.283455         0.783181
