19
Iteration:  2079
 O         0.485096         0.911727         0.087924
 C        -0.846309         0.928080         0.625036
 C        -1.252159         0.990721         2.170067
 C        -2.581922         1.261697         1.336736
 O        -3.795761         1.705115         1.902311
 C        -2.205555         0.148754         0.237648
 C        -2.547105         0.689388        -1.156547
 C        -2.100046         2.208244        -1.050257
 C        -1.748510         2.133665         0.437246
 H         0.779336        -0.007490         0.155219
 H        -1.133361         0.077179         2.759029
 H        -0.943242         1.912370         2.742827
 H        -4.193294         0.804395         2.079574
 H        -2.316728        -0.961957         0.335572
 H        -2.010732         0.213553        -1.946901
 H        -3.569634         0.523674        -1.547694
 H        -1.178563         2.416357        -1.650427
 H        -2.703459         2.953525        -1.508183
 H        -1.383401         3.060499         0.851342
