19
Iteration:  4447
 O         0.464302         0.813706         0.221226
 C        -0.831136         1.053557         0.653164
 C        -1.263199         1.112536         2.156753
 C        -2.544604         1.295685         1.314183
 O        -3.825671         1.635996         1.836969
 C        -2.062504         0.133594         0.381160
 C        -2.524020         0.491574        -1.080969
 C        -2.165694         2.039453        -1.168779
 C        -1.757516         2.220122         0.305465
 H         0.429931         1.082290        -0.684619
 H        -1.226396         0.307766         2.910656
 H        -0.952103         2.048828         2.729585
 H        -3.868987         2.586996         1.580307
 H        -2.152282        -0.908535         0.743575
 H        -2.004576        -0.030302        -1.858403
 H        -3.628899         0.539760        -1.245268
 H        -1.457219         2.342406        -1.911372
 H        -3.082127         2.678277        -1.451945
 H        -1.489638         3.164866         0.843203
