19
Iteration:  4041charge 0 multiplicity 1
 O         0.546355         0.768465         0.292183
 C        -0.824198         0.935777         0.656431
 C        -1.268926         1.028510         2.151588
 C        -2.579203         1.250195         1.253166
 O        -3.787627         1.607661         1.729487
 C        -2.136833         0.180968         0.240580
 C        -2.561208         0.692355        -1.160855
 C        -2.241437         2.232524        -1.017509
 C        -1.657265         2.281098         0.394260
 H         0.571505         0.220057        -0.550583
 H        -1.162187         0.079322         2.718708
 H        -1.029043         1.869680         2.755842
 H        -4.073596         1.203856         2.614901
 H        -2.418841        -0.897901         0.427737
 H        -2.249006         0.237365        -2.064713
 H        -3.677763         0.565742        -1.266507
 H        -1.518326         2.620795        -1.705199
 H        -3.176154         2.803353        -0.981318
 H        -1.170543         3.240474         0.802812
