19
Iteration:  2221charge 0 multiplicity 1
 O         0.494632         0.906665         0.087762
 C        -0.868756         0.964870         0.617545
 C        -1.289993         0.924985         2.129814
 C        -2.476997         1.237215         1.369292
 O        -3.765919         1.635498         1.809317
 C        -2.207017         0.173673         0.247167
 C        -2.631709         0.682516        -1.090373
 C        -2.094300         2.206453        -1.031958
 C        -1.711914         2.269482         0.435100
 H         1.072409         0.093636         0.415717
 H        -1.322340        -0.018083         2.626749
 H        -1.041056         1.777250         2.792325
 H        -4.485468         0.950908         1.771977
 H        -2.437365        -0.834664         0.616770
 H        -2.198088         0.039304        -1.887365
 H        -3.812601         0.603508        -1.253691
 H        -1.148205         2.240735        -1.702828
 H        -2.656724         3.018147        -1.456148
 H        -1.259662         3.131315         0.912038
