19
Iteration:   747
 O         0.545595         0.680162         0.304154
 C        -0.802222         0.913476         0.663335
 C        -1.198227         0.920884         2.103853
 C        -2.504394         1.294293         1.310246
 O        -3.801103         1.524510         1.790747
 C        -2.152924         0.221936         0.134398
 C        -2.672127         0.794797        -1.192328
 C        -2.301377         2.294926        -0.991631
 C        -1.676018         2.301587         0.412066
 H         0.630087         0.710421        -0.611010
 H        -1.173123        -0.040902         2.620865
 H        -0.831330         1.760926         2.603271
 H        -3.824970         1.665634         2.803496
 H        -2.331319        -0.888160         0.417557
 H        -2.004774         0.386093        -1.996022
 H        -3.792241         0.630241        -1.371401
 H        -1.417290         2.541062        -1.645663
 H        -3.179301         2.960521        -1.135267
 H        -1.298300         3.264589         0.829566
