19
Iteration:  4148charge 0 multiplicity 1
 O         0.417071         0.694539         0.207104
 C        -0.830561         1.099272         0.658379
 C        -1.312497         0.965851         2.134690
 C        -2.518055         1.372463         1.311363
 O        -3.774309         1.603383         1.876139
 C        -2.106085         0.191574         0.297639
 C        -2.556591         0.569673        -1.177883
 C        -2.224429         2.157673        -1.152306
 C        -1.685021         2.331929         0.357846
 H         1.066724         1.188052         0.817623
 H        -1.189637        -0.065474         2.582658
 H        -0.998498         1.866991         2.780294
 H        -4.028375         0.699042         2.295154
 H        -2.192866        -0.890945         0.552740
 H        -1.902027         0.161458        -2.049107
 H        -3.648581         0.413818        -1.445628
 H        -1.353279         2.446639        -1.791707
 H        -2.859287         2.960513        -1.594463
 H        -1.384351         3.367215         0.674553
