19
Iteration:  1777charge 0 multiplicity 1
 O         0.385291         0.794454         0.016661
 C        -0.887362         0.942863         0.619416
 C        -1.300245         1.046575         2.171275
 C        -2.541536         1.300148         1.327520
 O        -3.758823         1.659880         1.887283
 C        -2.136467         0.167423         0.273882
 C        -2.411905         0.676534        -1.213200
 C        -2.190202         2.215957        -0.997501
 C        -1.796152         2.198726         0.399479
 H         0.775979         0.021618         0.302085
 H        -1.358674         0.067197         2.841301
 H        -0.950505         1.848201         2.758066
 H        -3.832180         1.196310         2.693304
 H        -2.226247        -0.752006         0.698887
 H        -1.555639         0.351659        -1.808769
 H        -3.258767         0.175994        -1.715958
 H        -1.231464         2.396768        -1.450137
 H        -2.904217         2.998681        -1.319981
 H        -1.324812         3.030852         0.868364
