19
Iteration:  4794charge 0 multiplicity 1
 O         0.467225         0.818752         0.223390
 C        -0.801684         1.076013         0.695569
 C        -1.245276         1.179339         2.112537
 C        -2.505056         1.391416         1.328375
 O        -3.804218         1.575837         1.825925
 C        -2.193804         0.235723         0.349830
 C        -2.488280         0.515520        -1.081032
 C        -2.233668         2.034224        -1.192485
 C        -1.704194         2.288350         0.278557
 H         0.697321        -0.055031         0.298475
 H        -1.346021         0.256088         2.699701
 H        -0.851050         1.929155         2.813937
 H        -4.295005         0.736124         1.769331
 H        -2.395247        -0.827295         0.671543
 H        -1.989276        -0.265356        -1.718657
 H        -3.599668         0.440489        -1.145834
 H        -1.361740         2.334600        -1.838457
 H        -3.213744         2.398314        -1.239429
 H        -1.187281         3.282698         0.315767
