19
Iteration:  2494charge 0 multiplicity 1
 O         0.535611         0.795064         0.237173
 C        -0.817729         0.954230         0.644398
 C        -1.244748         0.855609         2.239548
 C        -2.469598         1.264889         1.385799
 O        -3.778069         1.741999         1.714838
 C        -2.167315         0.196134         0.239343
 C        -2.535948         0.712968        -1.191785
 C        -2.380937         2.217814        -0.996792
 C        -1.633317         2.199399         0.324735
 H         0.401213         0.374533        -0.648497
 H        -1.272458        -0.076275         2.878750
 H        -0.925999         1.808911         2.778714
 H        -4.276707         1.023160         2.312093
 H        -2.135626        -0.853449         0.542032
 H        -1.842626         0.357882        -1.899874
 H        -3.469300         0.366143        -1.634851
 H        -1.840920         2.805006        -1.769788
 H        -3.336423         2.778598        -0.882238
 H        -1.418388         3.191419         0.660756
