19
Iteration:  3580charge 0 multiplicity 1
 O         0.540264         0.605311         0.178410
 C        -0.811487         0.964957         0.680183
 C        -1.269325         0.980600         2.070713
 C        -2.637003         1.311640         1.326959
 O        -3.843916         1.393404         1.891046
 C        -2.236504         0.303280         0.262053
 C        -2.547351         0.770430        -1.150835
 C        -2.200589         2.268570        -1.071489
 C        -1.557011         2.292603         0.422497
 H         1.037702         1.443989         0.115039
 H        -1.057524         0.086357         2.609618
 H        -0.844106         1.850902         2.662073
 H        -4.367354         1.973762         1.266731
 H        -2.517930        -0.734760         0.496471
 H        -1.857773         0.271631        -1.798966
 H        -3.554065         0.799402        -1.490560
 H        -1.550202         2.688719        -1.883455
 H        -3.093770         2.880166        -1.188597
 H        -1.225551         3.209933         0.937642
