19
Iteration:  3196charge 0 multiplicity 1
 O         0.482350         0.693331         0.260907
 C        -0.856732         0.856135         0.661611
 C        -1.306325         1.007839         2.221206
 C        -2.526165         1.395160         1.375994
 O        -3.769747         1.381693         1.869301
 C        -2.213554         0.235995         0.180410
 C        -2.521995         0.751603        -1.243060
 C        -2.225734         2.324230        -0.993867
 C        -1.605337         2.311437         0.295912
 H         0.906316         0.522061        -0.653632
 H        -1.265084         0.025254         2.800308
 H        -0.860295         1.897358         2.693965
 H        -4.323716         2.182228         1.710453
 H        -2.392579        -0.841575         0.333269
 H        -1.805422         0.142136        -1.845453
 H        -3.571399         0.592752        -1.448345
 H        -1.676955         2.866654        -1.829930
 H        -3.220702         2.803470        -1.180031
 H        -1.119605         3.183830         0.680033
