19
Iteration:  2851charge 0 multiplicity 1
 O         0.508045         0.693373         0.159659
 C        -0.798203         1.069975         0.695347
 C        -1.213347         0.961219         2.211801
 C        -2.535315         1.314334         1.276490
 O        -3.799440         1.669585         1.782050
 C        -2.105678         0.185728         0.250300
 C        -2.499059         0.673800        -1.199393
 C        -2.316542         2.186072        -1.003693
 C        -1.703431         2.311049         0.453160
 H         0.293964         0.256865        -0.735246
 H        -1.363132        -0.028086         2.683245
 H        -0.895039         1.787359         2.867116
 H        -4.323269         0.956718         2.005500
 H        -2.255149        -0.889250         0.493542
 H        -1.782023         0.156021        -1.790429
 H        -3.485060         0.206300        -1.438694
 H        -1.606864         2.496093        -1.857499
 H        -3.246856         2.702889        -1.126544
 H        -1.606674         3.306336         0.937679
