19
Iteration:  2280
 O         0.458096         0.701759         0.059195
 C        -0.748759         0.996701         0.695431
 C        -1.242000         0.971224         2.146772
 C        -2.514041         1.344391         1.273711
 O        -3.798759         1.581631         1.798458
 C        -2.183507         0.298200         0.266482
 C        -2.487963         0.704723        -1.112517
 C        -2.208457         2.176447        -0.973049
 C        -1.752612         2.357038         0.404035
 H         0.495912        -0.288703         0.197595
 H        -1.544689        -0.090279         2.498420
 H        -0.949707         1.696217         2.934269
 H        -4.075912         0.630699         2.138944
 H        -2.328917        -0.773339         0.562394
 H        -1.783382         0.119224        -1.759273
 H        -3.453116         0.432578        -1.489485
 H        -1.567318         2.500795        -1.780632
 H        -3.128626         2.858254        -1.005641
 H        -1.560271         3.382542         0.875516
