19
Iteration:  2041
 O         0.527791         0.812398         0.098504
 C        -0.805284         1.041338         0.650704
 C        -1.305159         0.908678         2.267006
 C        -2.449992         1.404657         1.365176
 O        -3.759770         1.559518         1.679093
 C        -2.159761         0.236113         0.281620
 C        -2.704417         0.742419        -1.111539
 C        -2.242289         2.194118        -1.071254
 C        -1.676345         2.244601         0.375625
 H         0.713867        -0.114738         0.644219
 H        -1.288916        -0.122671         2.655649
 H        -0.822111         1.470937         3.052432
 H        -4.152863         0.604831         1.965708
 H        -2.070383        -0.830841         0.458622
 H        -2.119659         0.138604        -1.903434
 H        -3.825967         0.450689        -1.031950
 H        -1.337834         2.310509        -1.673127
 H        -3.119891         2.928666        -1.201100
 H        -1.143802         3.141974         0.802892
