19
Iteration:  3148charge 0 multiplicity 1
 O         0.456371         0.715593         0.205493
 C        -0.812881         1.038519         0.670138
 C        -1.261218         0.855988         2.162540
 C        -2.454010         1.276325         1.375857
 O        -3.823476         1.614382         1.668155
 C        -2.086947         0.215007         0.248420
 C        -2.570609         0.667400        -1.196490
 C        -2.241531         2.264152        -1.010340
 C        -1.761108         2.249596         0.487540
 H         0.524843         1.038641        -0.659300
 H        -1.395819        -0.189644         2.428174
 H        -0.777925         1.587819         2.830500
 H        -3.792698         2.108015         2.593417
 H        -2.094378        -0.819610         0.636778
 H        -1.900965         0.306087        -1.980617
 H        -3.637257         0.384664        -1.293944
 H        -1.498110         2.590608        -1.762283
 H        -3.001223         2.929051        -1.282858
 H        -1.295460         3.150087         0.969829
