19
Iteration:  4818charge 0 multiplicity 1
 O         0.531298         0.774263         0.228655
 C        -0.813886         1.058496         0.670815
 C        -1.248990         1.186482         2.105961
 C        -2.563700         1.340324         1.321648
 O        -3.796591         1.592094         1.862624
 C        -2.055255         0.156017         0.325180
 C        -2.649208         0.539920        -1.122190
 C        -2.261173         2.076308        -1.148463
 C        -1.694665         2.268294         0.273288
 H         1.020898         0.340511         1.094321
 H        -1.321743         0.465979         2.851801
 H        -0.944452         2.123677         2.618379
 H        -4.532400         1.243517         1.264775
 H        -1.949279        -0.826788         0.846311
 H        -2.000028         0.088016        -1.868448
 H        -3.765556         0.287505        -1.313820
 H        -1.489675         2.110203        -1.890961
 H        -3.099093         2.650229        -1.271614
 H        -1.229145         3.324069         0.405378
