19
Iteration:  4720
 O         0.523903         0.872950         0.269689
 C        -0.856483         1.006108         0.675583
 C        -1.278048         1.055083         2.167821
 C        -2.488499         1.409254         1.335391
 O        -3.805029         1.597946         1.665773
 C        -2.100269         0.206129         0.390372
 C        -2.525468         0.548821        -1.011854
 C        -2.314789         2.034178        -1.177297
 C        -1.717235         2.253926         0.263810
 H         0.616522         0.338318        -0.634095
 H        -1.168277         0.153882         2.714770
 H        -0.878613         1.944565         2.723960
 H        -4.015268         1.707672         2.623375
 H        -2.138145        -0.847785         0.744723
 H        -1.999281        -0.011582        -1.815615
 H        -3.615251         0.217595        -1.266272
 H        -1.579028         2.335773        -1.924851
 H        -3.279827         2.509697        -1.153399
 H        -1.074512         3.138068         0.604089
