19
Iteration:  2619charge 0 multiplicity 1
 O         0.505025         0.828217         0.230306
 C        -0.791093         0.950005         0.619959
 C        -1.278986         0.900252         2.078540
 C        -2.493018         1.314990         1.369672
 O        -3.807978         1.768662         1.726538
 C        -2.088929         0.189383         0.217071
 C        -2.577144         0.661621        -1.126668
 C        -2.286251         2.153246        -0.985489
 C        -1.724863         2.180603         0.447775
 H         0.609890         0.490940        -0.696438
 H        -1.063426        -0.063364         2.494664
 H        -0.882287         1.632722         2.765451
 H        -4.281207         1.026945         2.222038
 H        -2.129257        -0.873718         0.567791
 H        -2.014589         0.215734        -1.880874
 H        -3.672719         0.448041        -1.237877
 H        -1.446598         2.495143        -1.649475
 H        -3.058713         2.939847        -1.034090
 H        -1.328995         3.121204         0.999783
