19
Iteration:  3552charge 0 multiplicity 1
 O         0.365473         0.649287         0.087382
 C        -0.872851         0.978245         0.760287
 C        -1.293266         0.952192         2.184630
 C        -2.574964         1.289661         1.345487
 O        -3.742039         1.576222         1.786371
 C        -1.959726         0.168898         0.167301
 C        -2.542142         0.723281        -1.155034
 C        -2.230439         2.260531        -0.994872
 C        -1.705603         2.273401         0.530760
 H         0.944943         1.474178        -0.115814
 H        -1.221814        -0.093344         2.642687
 H        -0.861386         1.652982         2.887162
 H        -4.233147         2.085987         1.003454
 H        -2.050493        -0.905774         0.295678
 H        -2.014064         0.394897        -2.118365
 H        -3.640505         0.594070        -1.440361
 H        -1.362328         2.479523        -1.595755
 H        -3.082212         2.935855        -1.334180
 H        -1.308774         3.181556         1.051262
