19
Iteration:  3278charge 0 multiplicity 1
 O         0.510898         0.818107         0.212678
 C        -0.818061         0.944012         0.666881
 C        -1.254659         0.928569         2.104150
 C        -2.497613         1.261131         1.377169
 O        -3.844476         1.523111         1.796632
 C        -2.263597         0.230347         0.272334
 C        -2.619067         0.787334        -1.148882
 C        -2.164422         2.229190        -0.978726
 C        -1.538152         2.254606         0.427289
 H         0.775171         0.597558        -0.766002
 H        -1.389442         0.014496         2.637548
 H        -0.811933         1.724385         2.709888
 H        -4.387638         1.361759         1.093346
 H        -2.625326        -0.794679         0.458429
 H        -1.985341         0.188092        -1.826736
 H        -3.626547         0.676249        -1.604659
 H        -1.544485         2.425367        -1.836060
 H        -3.153062         2.731575        -1.178358
 H        -1.042600         3.169765         0.846830
