19
Iteration:    83charge 0 multiplicity 1
 O         0.551792         0.763455         0.181077
 C        -0.762658         0.939583         0.713778
 C        -1.177485         0.849198         2.148088
 C        -2.551166         1.274548         1.351338
 O        -3.893000         1.485299         1.792452
 C        -2.143511         0.231491         0.173513
 C        -2.566872         0.841208        -1.173961
 C        -2.235155         2.281361        -1.031612
 C        -1.720888         2.267701         0.451532
 H         0.535849        -0.129277        -0.272783
 H        -1.318363        -0.140560         2.667167
 H        -0.682918         1.637586         2.743203
 H        -3.943299         2.530125         1.879367
 H        -2.242504        -0.900831         0.430005
 H        -2.161006         0.320466        -2.060723
 H        -3.659742         0.657018        -1.355414
 H        -1.479317         2.796953        -1.801629
 H        -3.160541         2.944260        -1.063087
 H        -1.532492         3.251899         0.979215
