19
Iteration:   590
 O         0.465006         0.689803         0.259361
 C        -0.763552         0.978415         0.654317
 C        -1.272494         0.997990         2.156360
 C        -2.481261         1.342515         1.295194
 O        -3.775678         1.441108         1.803403
 C        -2.082522         0.249882         0.171287
 C        -2.637439         0.795432        -1.162740
 C        -2.317785         2.268421        -1.077012
 C        -1.669724         2.251861         0.387960
 H         0.489064        -0.250237        -0.089325
 H        -1.145159         0.043369         2.630196
 H        -0.804215         1.809466         2.730366
 H        -3.735313         1.951890         2.556021
 H        -2.220728        -0.735621         0.461599
 H        -2.079317         0.332191        -1.995019
 H        -3.691803         0.559748        -1.215967
 H        -1.662318         2.661335        -1.870567
 H        -3.187525         2.865667        -0.938044
 H        -1.292851         3.224023         0.929916
