19
Iteration:   953charge 0 multiplicity 1
 O         0.323276         0.759216         0.063497
 C        -0.855766         0.982396         0.646781
 C        -1.224976         0.897994         2.238562
 C        -2.544248         1.239282         1.347385
 O        -3.766329         1.655588         1.788278
 C        -2.091052         0.153664         0.219695
 C        -2.444245         0.752342        -1.246092
 C        -2.209234         2.348801        -0.989421
 C        -1.769138         2.195441         0.465682
 H         0.596570        -0.089174        -0.065695
 H        -0.936844        -0.118857         2.771882
 H        -0.764670         1.822835         2.623468
 H        -3.910193         1.286867         2.677328
 H        -2.229152        -0.876014         0.535946
 H        -1.719361         0.385672        -1.975151
 H        -3.431550         0.523624        -1.464674
 H        -1.381171         2.662925        -1.651674
 H        -3.081920         2.976944        -1.101534
 H        -1.396692         3.129435         1.133256
