19
Iteration:  1320
 O         0.393802         0.715838         0.134348
 C        -0.817002         1.052980         0.707112
 C        -1.276713         0.831873         2.137665
 C        -2.523928         1.332508         1.263728
 O        -3.800875         1.655333         1.814396
 C        -2.052832         0.227850         0.249410
 C        -2.473525         0.687931        -1.096998
 C        -2.249618         2.210465        -1.022587
 C        -1.689930         2.297944         0.405406
 H         0.488199         1.010182        -0.784345
 H        -1.454181        -0.238143         2.496957
 H        -0.940544         1.650045         2.956273
 H        -3.931593         0.952766         2.429356
 H        -2.013176        -0.911699         0.505316
 H        -1.952180         0.211364        -1.886376
 H        -3.541300         0.371756        -1.164250
 H        -1.592385         2.481491        -1.818477
 H        -3.168261         2.766227        -1.174337
 H        -1.377440         3.249286         0.846831
