19
Iteration:  1880charge 0 multiplicity 1
 O         0.513484         0.789898         0.148468
 C        -0.811572         0.979189         0.668989
 C        -1.250960         0.899274         2.170907
 C        -2.472663         1.393980         1.325050
 O        -3.794040         1.546139         1.645666
 C        -2.112197         0.264863         0.329111
 C        -2.659512         0.734308        -1.025171
 C        -2.241953         2.201058        -1.065208
 C        -1.709619         2.301079         0.344915
 H         0.860579        -0.186034         0.253387
 H        -1.249374        -0.185200         2.629918
 H        -0.700469         1.629663         2.938675
 H        -4.113779         0.636780         2.060288
 H        -2.326503        -0.746497         0.804974
 H        -2.363172         0.097155        -1.889621
 H        -3.802417         0.620004        -0.971713
 H        -1.382008         2.577370        -1.798400
 H        -3.116360         2.887555        -1.181961
 H        -1.213134         3.194893         0.766071
