19
Iteration:  3943charge 0 multiplicity 1
 O         0.467535         0.852644        -0.058167
 C        -0.764809         0.961518         0.721591
 C        -1.346742         0.933292         2.241333
 C        -2.546225         1.208640         1.281674
 O        -3.825816         1.668782         1.733813
 C        -2.141880         0.205641         0.322350
 C        -2.533827         0.759831        -1.079229
 C        -2.164568         2.193936        -0.924842
 C        -1.625027         2.193182         0.457828
 H         0.728054        -0.099398         0.152144
 H        -1.347691        -0.105582         2.634412
 H        -1.215005         1.665783         2.999599
 H        -4.514683         1.459584         1.001460
 H        -2.055886        -0.870552         0.649065
 H        -2.051074         0.345354        -1.941906
 H        -3.584734         0.450725        -1.369405
 H        -1.480910         2.357308        -1.738585
 H        -3.003466         2.954577        -0.998167
 H        -1.260881         3.211012         0.861318
