19
Iteration:  3848charge 0 multiplicity 1
 O         0.416244         0.756251         0.178917
 C        -0.894604         1.007278         0.639260
 C        -1.205505         0.891322         2.148881
 C        -2.504620         1.270091         1.345830
 O        -3.805827         1.469563         1.732422
 C        -2.194926         0.274540         0.300451
 C        -2.570087         0.739057        -1.155262
 C        -2.196673         2.278490        -1.050885
 C        -1.605302         2.305275         0.398701
 H         0.615941         0.012398         0.656999
 H        -1.252797        -0.177750         2.546457
 H        -0.865685         1.733624         2.783020
 H        -3.782180         2.140747         2.410377
 H        -2.133084        -0.789300         0.470456
 H        -1.954845         0.168405        -1.913430
 H        -3.478607         0.590275        -1.698204
 H        -1.456514         2.599965        -1.817937
 H        -3.125322         2.916345        -1.188970
 H        -1.276742         3.172312         0.951624
