19
Iteration:  2391
 O         0.490633         0.822901         0.055188
 C        -0.791142         1.004269         0.728930
 C        -1.252809         0.970630         2.238646
 C        -2.538967         1.195145         1.359253
 O        -3.831560         1.591014         1.818691
 C        -2.243298         0.213401         0.249129
 C        -2.679890         0.788166        -1.175518
 C        -2.078815         2.183907        -1.053348
 C        -1.659482         2.232026         0.364685
 H         1.051212         0.189655         0.644731
 H        -0.835934         0.022146         2.775638
 H        -0.985850         1.941977         2.745518
 H        -4.284457         0.839299         2.133840
 H        -2.352509        -0.878776         0.389793
 H        -2.037815         0.235455        -1.951021
 H        -3.707432         0.769922        -1.435739
 H        -1.275174         2.076911        -1.793979
 H        -2.765554         3.019267        -1.287668
 H        -1.422516         3.292495         0.563399
