19
Iteration:  3741
 O         0.494446         0.736711         0.225068
 C        -0.809071         0.943744         0.708322
 C        -1.360982         0.925797         2.106307
 C        -2.575274         1.319559         1.253482
 O        -3.722861         1.470696         1.936062
 C        -2.168970         0.279629         0.217237
 C        -2.612407         0.712353        -1.235091
 C        -2.226754         2.309299        -1.059323
 C        -1.517106         2.312160         0.339231
 H         0.924333         0.225013         0.849459
 H        -1.451264         0.026467         2.731976
 H        -0.949383         1.632838         2.854561
 H        -4.493075         1.195954         1.441164
 H        -2.485255        -0.728661         0.505389
 H        -1.951437         0.345069        -2.048143
 H        -3.670282         0.704782        -1.491081
 H        -1.645812         2.678686        -1.934033
 H        -3.106815         2.881002        -0.896249
 H        -1.261247         3.263253         0.759172
