19
Iteration:  2330
 O         0.591189         0.816674         0.215619
 C        -0.780693         0.915622         0.682346
 C        -1.262452         0.917336         2.143208
 C        -2.536633         1.237345         1.232977
 O        -3.714468         1.718699         1.701922
 C        -2.239049         0.187002         0.214943
 C        -2.521517         0.698461        -1.197288
 C        -2.387257         2.227946        -0.946869
 C        -1.681555         2.243227         0.444390
 H         0.821851        -0.102468         0.167797
 H        -1.100894         0.060676         2.709700
 H        -1.033324         1.880332         2.605657
 H        -3.957805         1.187980         2.394368
 H        -2.391178        -0.779433         0.692977
 H        -2.045070         0.148172        -1.974659
 H        -3.658183         0.540226        -1.372797
 H        -1.907947         2.867197        -1.727896
 H        -3.384790         2.602951        -0.825162
 H        -1.450288         3.088570         1.066740
