19
Iteration:   175
 O         0.412761         0.671020         0.077429
 C        -0.824439         1.040165         0.603299
 C        -1.337446         0.929676         2.127825
 C        -2.569396         1.226318         1.328799
 O        -3.800614         1.548494         1.839392
 C        -2.024161         0.159884         0.174089
 C        -2.528628         0.747650        -1.153180
 C        -2.127881         2.278931        -1.000166
 C        -1.776512         2.264714         0.464512
 H         1.099478         1.080949         0.762529
 H        -1.270184        -0.034524         2.652564
 H        -1.040433         1.767741         2.817610
 H        -3.663184         2.168849         2.634977
 H        -1.999758        -0.868858         0.401619
 H        -2.251040         0.277193        -2.120249
 H        -3.628642         0.712083        -1.087715
 H        -1.343446         2.614618        -1.633561
 H        -2.939169         2.985134        -1.224932
 H        -1.501371         3.178448         0.885236
