19
Iteration:  3254
 O         0.478769         0.815076         0.178245
 C        -0.782891         0.913644         0.713132
 C        -1.310579         0.898186         2.166771
 C        -2.501960         1.293539         1.267668
 O        -3.788699         1.599556         1.777477
 C        -2.091553         0.212254         0.238295
 C        -2.595440         0.739145        -1.116684
 C        -2.182054         2.307270        -0.981829
 C        -1.664871         2.198298         0.451963
 H         0.447801         0.398016        -0.660295
 H        -1.442222        -0.101096         2.547262
 H        -0.871351         1.575209         2.916912
 H        -4.577968         1.412228         1.233668
 H        -2.209049        -0.875472         0.312929
 H        -2.283868         0.191289        -2.006555
 H        -3.713802         0.638767        -1.110484
 H        -1.410935         2.513641        -1.710479
 H        -3.123435         2.896063        -1.238225
 H        -1.294253         3.148705         0.872494
