19
Iteration:  2039
 O         0.548058         0.796419         0.098906
 C        -0.809490         1.022533         0.661622
 C        -1.294661         0.922409         2.266246
 C        -2.461335         1.384953         1.354441
 O        -3.762251         1.550449         1.665494
 C        -2.144657         0.238037         0.273727
 C        -2.715092         0.738993        -1.092558
 C        -2.267789         2.203070        -1.071392
 C        -1.670176         2.272684         0.380641
 H         0.776516        -0.111106         0.602530
 H        -1.348279        -0.114890         2.723843
 H        -0.764155         1.499251         3.080244
 H        -4.159981         0.697887         1.940262
 H        -2.102795        -0.822505         0.505875
 H        -2.145809         0.146336        -1.862790
 H        -3.785697         0.441920        -1.125194
 H        -1.429754         2.323858        -1.701201
 H        -3.087447         3.022058        -1.222601
 H        -1.164747         3.164572         0.855072
