19
Iteration:  4096charge 0 multiplicity 1
 O         0.450741         0.699978         0.148135
 C        -0.797797         1.006664         0.659132
 C        -1.295667         1.032907         2.213183
 C        -2.522895         1.308478         1.310777
 O        -3.834695         1.499916         1.712063
 C        -2.110093         0.250511         0.322141
 C        -2.556168         0.661328        -1.083102
 C        -2.228357         2.170740        -1.011882
 C        -1.566017         2.233261         0.400071
 H         0.560141         1.252967        -0.579765
 H        -1.465469         0.056819         2.707914
 H        -1.102553         1.771936         2.935744
 H        -4.164918         2.351602         1.351128
 H        -2.165120        -0.851679         0.422244
 H        -1.854341         0.242963        -1.712718
 H        -3.620486         0.458780        -1.280157
 H        -1.670617         2.593426        -1.828925
 H        -3.116845         2.831321        -0.911557
 H        -1.327682         3.287740         0.723537
