19
Iteration:  4823
 O         0.517953         0.763092         0.250033
 C        -0.807899         1.070835         0.661559
 C        -1.273003         1.225540         2.093503
 C        -2.509031         1.330718         1.307846
 O        -3.768254         1.584799         1.836688
 C        -2.076645         0.143105         0.316183
 C        -2.648831         0.521022        -1.131391
 C        -2.266483         2.025532        -1.089504
 C        -1.718525         2.282169         0.325182
 H         1.071476         0.561918         0.971635
 H        -1.392587         0.339883         2.824663
 H        -0.949717         2.179861         2.514087
 H        -4.505101         1.485419         1.242100
 H        -2.004058        -0.898067         0.654693
 H        -2.077314         0.009884        -1.928544
 H        -3.711628         0.381291        -1.214279
 H        -1.497492         2.373543        -1.855771
 H        -3.146581         2.779250        -1.400228
 H        -1.174095         3.207838         0.319259
