19
Iteration:  1104charge 0 multiplicity 1
 O         0.505415         0.706223         0.090746
 C        -0.808241         0.961890         0.697916
 C        -1.274278         0.909696         2.170624
 C        -2.530353         1.261467         1.368122
 O        -3.888864         1.654751         1.888396
 C        -2.142508         0.223462         0.157286
 C        -2.483081         0.754970        -1.252825
 C        -2.212889         2.279247        -1.018941
 C        -1.670876         2.272843         0.448065
 H         0.344931        -0.144698        -0.193341
 H        -1.114297        -0.023934         2.632246
 H        -0.922927         1.781031         2.841703
 H        -4.090102         1.060713         2.695206
 H        -2.150042        -0.809346         0.356259
 H        -1.906123         0.170980        -2.035995
 H        -3.526333         0.471412        -1.499050
 H        -1.463637         2.805365        -1.739102
 H        -3.214514         2.843646        -1.170349
 H        -1.353887         3.287539         0.912538
