19
Iteration:  3044
 O         0.509304         0.775197         0.248308
 C        -0.853696         0.877977         0.714977
 C        -1.256437         1.016122         2.144027
 C        -2.475556         1.337483         1.294894
 O        -3.759467         1.536173         1.849666
 C        -2.256634         0.242423         0.251146
 C        -2.541505         0.727685        -1.260597
 C        -2.237175         2.263301        -1.072607
 C        -1.620649         2.235396         0.449865
 H         0.406344         0.453219        -0.664175
 H        -1.235017         0.037878         2.659087
 H        -0.844743         1.841614         2.719581
 H        -4.285171         0.794337         1.421224
 H        -2.526523        -0.721663         0.698665
 H        -1.927987         0.087044        -1.927344
 H        -3.581321         0.501004        -1.520796
 H        -1.556725         2.712571        -1.810121
 H        -3.235901         2.864406        -0.973076
 H        -1.302487         3.221027         0.889257
