19
Iteration:  4767charge 0 multiplicity 1
 O         0.417277         0.834878         0.111334
 C        -0.783085         1.027579         0.706979
 C        -1.267883         1.196433         2.197666
 C        -2.541551         1.313784         1.349641
 O        -3.870586         1.698727         1.718286
 C        -2.062412         0.153381         0.346467
 C        -2.469525         0.492515        -1.043791
 C        -2.221723         2.070990        -1.147723
 C        -1.713556         2.246390         0.351517
 H         0.522339         0.094244        -0.429682
 H        -1.210943         0.257348         2.828103
 H        -0.848898         2.004829         2.810253
 H        -4.145118         1.025418         2.386955
 H        -2.125500        -0.908067         0.582686
 H        -1.864480        -0.095574        -1.755383
 H        -3.474966         0.091472        -1.189190
 H        -1.287741         2.188170        -1.629409
 H        -3.130867         2.726404        -1.338963
 H        -1.466495         3.254620         0.638049
