19
Iteration:  1503
 O         0.519142         0.664700         0.191026
 C        -0.787149         1.038905         0.672473
 C        -1.235265         0.918404         2.184025
 C        -2.465733         1.298435         1.351157
 O        -3.758177         1.640603         1.700955
 C        -2.120706         0.202176         0.248111
 C        -2.652814         0.722394        -1.103777
 C        -2.337543         2.201340        -1.012745
 C        -1.692618         2.274619         0.357027
 H         0.901038         1.516061         0.122908
 H        -1.352165        -0.156670         2.654823
 H        -0.708890         1.640656         2.778283
 H        -4.197046         0.831272         2.105751
 H        -2.335649        -0.804641         0.575529
 H        -2.107690         0.243519        -1.943825
 H        -3.709543         0.585492        -1.421479
 H        -1.588050         2.461761        -1.807765
 H        -3.214979         2.916149        -1.080844
 H        -1.355301         3.179795         0.698556
