19
Iteration:  3781
 O         0.421793         0.819989         0.163861
 C        -0.794994         1.002812         0.731113
 C        -1.242555         0.898071         2.129812
 C        -2.503651         1.241259         1.256020
 O        -3.761806         1.571820         1.804138
 C        -2.178432         0.173046         0.215425
 C        -2.607200         0.751121        -1.189636
 C        -2.144506         2.241767        -1.029450
 C        -1.750358         2.262277         0.538118
 H         0.810682        -0.116400         0.014789
 H        -1.188475        -0.121628         2.654896
 H        -0.806179         1.679551         2.754148
 H        -4.194532         2.202164         1.148320
 H        -2.107255        -0.826001         0.635214
 H        -2.107998         0.129890        -1.949455
 H        -3.662047         0.525176        -1.384590
 H        -1.246747         2.463424        -1.604114
 H        -2.988498         2.959129        -1.320584
 H        -1.410073         3.168784         1.061338
