19
Iteration:  3833charge 0 multiplicity 1
 O         0.433043         0.811000         0.068572
 C        -0.787449         1.010214         0.698044
 C        -1.274046         0.883558         2.157066
 C        -2.521538         1.345429         1.341659
 O        -3.844144         1.455499         1.717176
 C        -2.261291         0.255767         0.257082
 C        -2.521455         0.752373        -1.113165
 C        -2.149458         2.205585        -0.972060
 C        -1.610086         2.266177         0.431539
 H         0.915203        -0.079452         0.138205
 H        -1.277583        -0.153005         2.572738
 H        -0.770363         1.476967         2.911501
 H        -4.130362         2.335838         2.002385
 H        -2.603975        -0.716242         0.696398
 H        -1.803707         0.216162        -1.763288
 H        -3.627327         0.534435        -1.328008
 H        -1.410441         2.492263        -1.706736
 H        -3.043854         2.860966        -1.011763
 H        -1.168692         3.312746         0.618798
