19
Iteration:  1901
 O         0.415169         0.832261         0.067360
 C        -0.855343         0.961867         0.702848
 C        -1.219144         0.977757         2.196001
 C        -2.519318         1.319308         1.343245
 O        -3.891939         1.613196         1.826171
 C        -2.068586         0.217536         0.225505
 C        -2.579420         0.690470        -1.138700
 C        -2.144876         2.151674        -1.082011
 C        -1.646763         2.278088         0.419846
 H         0.796792        -0.002022         0.226639
 H        -1.339784        -0.047554         2.708936
 H        -0.697997         1.734462         2.899788
 H        -4.174663         0.842525         2.383280
 H        -2.235596        -0.861565         0.352735
 H        -2.219133         0.115875        -2.037329
 H        -3.710275         0.583316        -1.289411
 H        -1.196746         2.383825        -1.757195
 H        -2.902783         2.912767        -1.345966
 H        -1.293289         3.236939         0.867829
