19
Iteration:  2624
 O         0.524038         0.832841         0.240556
 C        -0.790376         0.937413         0.573365
 C        -1.294572         0.929351         2.061078
 C        -2.508127         1.280677         1.335802
 O        -3.789981         1.744908         1.732186
 C        -2.138921         0.201076         0.247323
 C        -2.574181         0.656236        -1.138875
 C        -2.298971         2.160144        -0.953258
 C        -1.670675         2.199433         0.451669
 H         0.531744         0.461479        -0.631364
 H        -1.217809        -0.070618         2.589769
 H        -0.892665         1.812273         2.639817
 H        -4.251941         1.077741         2.221411
 H        -2.225484        -0.805998         0.625975
 H        -1.866319         0.088102        -1.917059
 H        -3.613192         0.409680        -1.257853
 H        -1.469048         2.603643        -1.492253
 H        -3.090859         2.911767        -0.865313
 H        -1.336315         3.079511         0.906857
