19
Iteration:  4737
 O         0.453044         0.875217         0.157483
 C        -0.758114         1.042252         0.702133
 C        -1.228583         1.141009         2.197864
 C        -2.547849         1.304378         1.313486
 O        -3.849048         1.707034         1.613696
 C        -2.079476         0.134382         0.349203
 C        -2.530166         0.464151        -1.081104
 C        -2.270618         2.029902        -1.010422
 C        -1.715937         2.249902         0.388904
 H         0.442806         0.213002        -0.663959
 H        -1.211782         0.133704         2.756654
 H        -0.856401         1.991429         2.763993
 H        -3.815863         1.665001         2.592168
 H        -2.106816        -0.879078         0.772903
 H        -1.937274        -0.094753        -1.859753
 H        -3.476696         0.050433        -1.302732
 H        -1.439664         2.340791        -1.751386
 H        -3.043056         2.772952        -1.364999
 H        -1.651417         3.283028         0.704833
