19
Iteration:    81charge 0 multiplicity 1
 O         0.556823         0.772815         0.172452
 C        -0.747530         0.924898         0.713573
 C        -1.193187         0.840970         2.127719
 C        -2.557343         1.285148         1.340879
 O        -3.903396         1.484112         1.805643
 C        -2.147342         0.237356         0.185233
 C        -2.574245         0.834234        -1.177214
 C        -2.226716         2.284136        -1.028860
 C        -1.704521         2.263530         0.442532
 H         0.532127        -0.059355        -0.172887
 H        -1.267903        -0.089019         2.650724
 H        -0.716613         1.620444         2.768028
 H        -3.997160         2.430589         1.879426
 H        -2.321938        -0.839191         0.471156
 H        -2.133707         0.310600        -2.033091
 H        -3.642345         0.656765        -1.302124
 H        -1.476748         2.805744        -1.760094
 H        -3.146345         2.922320        -1.073730
 H        -1.470169         3.255590         0.988776
