19
Iteration:  3588charge 0 multiplicity 1
 O         0.497695         0.614901         0.214007
 C        -0.747516         0.965826         0.647946
 C        -1.299968         1.022013         2.148135
 C        -2.575374         1.335331         1.266327
 O        -3.844822         1.360753         1.953929
 C        -2.283637         0.291026         0.187250
 C        -2.586248         0.760788        -1.165131
 C        -2.181351         2.280290        -1.077907
 C        -1.541026         2.325896         0.394794
 H         1.062745         1.470040         0.285583
 H        -1.339544        -0.029023         2.518721
 H        -0.813883         1.695933         2.847245
 H        -4.551403         1.890320         1.353700
 H        -2.323697        -0.778332         0.522318
 H        -1.802678         0.390662        -1.931778
 H        -3.642014         0.425807        -1.439215
 H        -1.582901         2.594338        -1.984066
 H        -3.012383         2.967313        -1.042926
 H        -0.860785         3.147499         0.685572
