19
Iteration:  2355
 O         0.471207         0.876915         0.187759
 C        -0.842886         0.919117         0.668022
 C        -1.290972         0.806758         2.141707
 C        -2.529868         1.357539         1.363084
 O        -3.788740         1.722874         1.760007
 C        -2.041424         0.150514         0.138513
 C        -2.616261         0.715959        -1.073376
 C        -2.286828         2.158030        -0.979902
 C        -1.640820         2.290872         0.319881
 H         1.020068         0.030248         0.505396
 H        -1.246750        -0.247528         2.485070
 H        -0.754898         1.452742         2.836466
 H        -4.258202         1.031166         2.210437
 H        -2.169499        -0.837941         0.614517
 H        -1.987075         0.342787        -1.942737
 H        -3.676004         0.349497        -1.373240
 H        -1.546665         2.485616        -1.686446
 H        -3.124238         2.907080        -1.099495
 H        -1.188619         3.293463         0.656659
