19
Iteration:   723
 O         0.537488         0.589559         0.236898
 C        -0.798867         0.989709         0.632720
 C        -1.230358         0.954785         2.087561
 C        -2.546780         1.249119         1.285236
 O        -3.857155         1.463618         1.810617
 C        -2.086620         0.201024         0.178448
 C        -2.670331         0.795866        -1.074511
 C        -2.234773         2.347121        -1.038822
 C        -1.628700         2.288527         0.410622
 H         1.002186         1.274394        -0.331157
 H        -1.204977        -0.068817         2.482974
 H        -1.096466         1.793038         2.731867
 H        -3.845103         2.246030         2.260439
 H        -2.111755        -0.866427         0.461422
 H        -2.410335         0.402116        -2.086383
 H        -3.769906         0.841380        -0.884863
 H        -1.545573         2.525401        -1.868824
 H        -3.090206         2.956594        -1.006484
 H        -1.453024         3.287515         1.016255
