19
Iteration:   377charge 0 multiplicity 1
 O         0.493053         0.758533         0.107543
 C        -0.825883         0.937582         0.639485
 C        -1.303390         0.872247         2.083644
 C        -2.513622         1.386642         1.294942
 O        -3.866016         1.452376         1.788627
 C        -2.177161         0.280014         0.262639
 C        -2.596623         0.687364        -1.054179
 C        -2.142093         2.217226        -0.976907
 C        -1.553907         2.247419         0.435773
 H         0.530727         1.709918        -0.186135
 H        -1.422145        -0.049567         2.796528
 H        -0.754609         1.715374         2.580191
 H        -4.275339         2.344252         1.853135
 H        -2.394856        -0.832853         0.531938
 H        -2.197838         0.091054        -1.921475
 H        -3.731676         0.761254        -1.092667
 H        -1.382393         2.502603        -1.659966
 H        -3.025978         2.822758        -1.086600
 H        -1.023031         3.177979         0.930064
