19
Iteration:   330
 O         0.441614         0.699168         0.257350
 C        -0.879685         0.950516         0.608388
 C        -1.282303         0.966382         2.100828
 C        -2.539260         1.281936         1.294443
 O        -3.777163         1.507265         1.896095
 C        -2.065516         0.238505         0.200647
 C        -2.543862         0.707382        -1.198417
 C        -2.184446         2.266895        -1.023842
 C        -1.716187         2.260685         0.413335
 H         0.553236         0.994988        -0.604573
 H        -1.220074        -0.018446         2.571839
 H        -0.994400         1.783258         2.846169
 H        -3.653567         2.295331         2.293238
 H        -2.284831        -0.790387         0.432481
 H        -1.986817         0.285067        -2.058630
 H        -3.636978         0.583120        -1.319809
 H        -1.407989         2.582896        -1.709237
 H        -3.098972         2.877029        -1.132191
 H        -1.365945         3.198941         0.797757
