19
Iteration:  3797charge 0 multiplicity 1
 O         0.393277         0.865404         0.069963
 C        -0.861988         0.997606         0.669172
 C        -1.267060         0.932354         2.243535
 C        -2.557704         1.163607         1.354972
 O        -3.774290         1.594764         1.749556
 C        -2.094724         0.182191         0.197767
 C        -2.529936         0.748209        -1.094655
 C        -2.119107         2.203828        -0.936014
 C        -1.677955         2.191182         0.445419
 H         0.412960        -0.136021        -0.119469
 H        -1.181343        -0.026234         2.644671
 H        -1.155220         1.859274         2.871916
 H        -4.010268         2.376509         1.304179
 H        -2.307315        -0.901418         0.193433
 H        -2.147186         0.349721        -2.050838
 H        -3.630537         0.696816        -1.284634
 H        -1.260918         2.431441        -1.617989
 H        -2.814044         2.946855        -1.187286
 H        -1.505606         3.185873         0.886519
