19
Iteration:  3836
 O         0.420268         0.806329         0.090864
 C        -0.787982         1.017713         0.687054
 C        -1.286036         0.883944         2.143873
 C        -2.506348         1.322630         1.354456
 O        -3.834525         1.439427         1.707522
 C        -2.269594         0.264824         0.288194
 C        -2.542645         0.759827        -1.139968
 C        -2.152250         2.195598        -0.987841
 C        -1.609916         2.289027         0.419152
 H         0.857478        -0.108394         0.260788
 H        -1.194974        -0.182315         2.590588
 H        -0.719457         1.477631         2.874141
 H        -3.973474         2.417551         2.085531
 H        -2.508497        -0.738612         0.690384
 H        -1.722265         0.242287        -1.681212
 H        -3.604764         0.612391        -1.355123
 H        -1.421218         2.555552        -1.722226
 H        -3.079424         2.874689        -1.043347
 H        -1.153517         3.286860         0.650069
