19
Iteration:  4632
 O         0.525564         0.836712         0.143867
 C        -0.801999         1.059122         0.689216
 C        -1.256753         1.096216         2.206167
 C        -2.511209         1.421502         1.309747
 O        -3.914307         1.512954         1.698019
 C        -2.152987         0.178844         0.441603
 C        -2.532277         0.477592        -0.977218
 C        -2.198144         2.090982        -1.139685
 C        -1.673144         2.225562         0.300556
 H         0.439465         0.866102        -0.822745
 H        -1.459715         0.196383         2.757595
 H        -0.765863         1.742187         2.949243
 H        -4.033223         2.492005         1.780420
 H        -2.199619        -0.916563         0.659315
 H        -1.819514        -0.012738        -1.676669
 H        -3.655294         0.278496        -1.124065
 H        -1.434257         2.327582        -1.886984
 H        -3.098615         2.723330        -1.257006
 H        -1.235193         3.280942         0.499889
