19
Iteration:  1344charge 0 multiplicity 1
 O         0.597122         0.702377         0.179920
 C        -0.734159         0.949823         0.633525
 C        -1.242441         0.984273         2.172531
 C        -2.474692         1.302434         1.334704
 O        -3.824096         1.624823         1.682084
 C        -2.146800         0.208933         0.243071
 C        -2.685008         0.730356        -1.143940
 C        -2.314892         2.216647        -0.958280
 C        -1.708266         2.205812         0.429361
 H         0.898295         1.383953        -0.373251
 H        -1.273333        -0.019531         2.649739
 H        -0.696959         1.924260         2.838269
 H        -4.171855         0.812146         2.286415
 H        -2.407184        -0.810437         0.572918
 H        -2.170638         0.110752        -1.918352
 H        -3.797312         0.657819        -1.218789
 H        -1.613029         2.547730        -1.715532
 H        -3.129311         2.927058        -0.977208
 H        -1.326472         3.223163         0.838412
