19
Iteration:  4654
 O         0.510904         0.726799         0.320581
 C        -0.818795         1.059751         0.696003
 C        -1.223039         1.185542         2.140370
 C        -2.556496         1.382872         1.249860
 O        -3.808749         1.463059         1.761583
 C        -2.102249         0.222426         0.343976
 C        -2.615709         0.524134        -1.105468
 C        -2.252551         2.060634        -1.149545
 C        -1.677923         2.282048         0.357813
 H         0.642110         1.103420        -0.581890
 H        -0.933481         0.379544         2.786024
 H        -0.864063         2.109234         2.640513
 H        -4.090942         2.342398         2.026057
 H        -2.194297        -0.844888         0.655872
 H        -2.046355        -0.090496        -1.849446
 H        -3.768070         0.390607        -1.201222
 H        -1.500885         2.194664        -1.929061
 H        -3.192917         2.580655        -1.322260
 H        -1.322890         3.352314         0.383954
