19
Iteration:  1196
 O         0.476094         0.743497         0.146093
 C        -0.748422         0.895470         0.713574
 C        -1.223676         0.989039         2.191880
 C        -2.470104         1.231563         1.294594
 O        -3.701842         1.621638         1.632372
 C        -2.152794         0.179806         0.249320
 C        -2.788809         0.808497        -1.131279
 C        -2.283978         2.252809        -0.929751
 C        -1.636576         2.166223         0.408804
 H         1.051040         1.444404         0.610615
 H        -1.330183        -0.055097         2.791895
 H        -0.979607         1.849316         2.794722
 H        -4.207315         0.922918         1.850568
 H        -2.188038        -0.966379         0.360081
 H        -2.379197         0.377540        -2.012425
 H        -3.847200         0.828354        -1.332594
 H        -1.406712         2.507266        -1.566127
 H        -3.071937         3.021490        -1.067039
 H        -1.370715         3.117096         0.852127
