19
Iteration:  3540
 O         0.385092         0.712898         0.024160
 C        -0.780156         1.015035         0.690891
 C        -1.377886         0.820863         2.213056
 C        -2.482872         1.224911         1.297861
 O        -3.821586         1.676579         1.804454
 C        -2.037758         0.208386         0.199740
 C        -2.493179         0.732333        -1.151706
 C        -2.199981         2.200065        -0.945428
 C        -1.659537         2.256850         0.490212
 H         0.945278         1.495881         0.170729
 H        -1.301670        -0.181688         2.707184
 H        -1.145598         1.707191         2.814928
 H        -4.359952         2.062990         1.090964
 H        -1.973431        -0.841683         0.439752
 H        -2.034291         0.176985        -1.993742
 H        -3.576549         0.429023        -1.024604
 H        -1.515827         2.541670        -1.707183
 H        -3.140233         2.843491        -1.053140
 H        -1.535311         3.200808         1.070896
