19
Iteration:  3604
 O         0.432158         0.623268         0.237707
 C        -0.874527         0.977464         0.665785
 C        -1.367827         0.920080         2.140204
 C        -2.509748         1.392710         1.316986
 O        -3.740845         1.397037         1.982509
 C        -2.078142         0.278785         0.207379
 C        -2.583024         0.769368        -1.231798
 C        -2.207644         2.280324        -1.063021
 C        -1.561060         2.281892         0.268659
 H         1.079116         1.367618         0.539843
 H        -1.473507        -0.016726         2.697393
 H        -1.051344         1.766721         2.794262
 H        -4.461532         1.631811         1.267288
 H        -2.352985        -0.726245         0.458514
 H        -2.034019         0.251255        -1.963066
 H        -3.648659         0.825595        -1.404318
 H        -1.456349         2.664346        -1.758284
 H        -3.051905         3.002422        -1.210350
 H        -1.420537         3.258792         0.722488
