19
Iteration:  4251
 O         0.479975         0.731484         0.312332
 C        -0.801330         1.022220         0.670039
 C        -1.231088         1.092635         2.168146
 C        -2.466337         1.367806         1.319788
 O        -3.794950         1.616364         1.755327
 C        -2.094987         0.214349         0.346885
 C        -2.578361         0.552398        -1.145836
 C        -2.296085         2.092436        -1.116362
 C        -1.705317         2.335516         0.296323
 H         0.573655         0.738267        -0.680206
 H        -1.305764         0.123775         2.680313
 H        -0.910838         1.872080         2.859381
 H        -4.113405         0.714071         1.863790
 H        -2.098008        -0.830460         0.708564
 H        -2.157083         0.099004        -2.010302
 H        -3.673737         0.458559        -1.327936
 H        -1.543427         2.356253        -1.886677
 H        -3.257109         2.622467        -1.102606
 H        -1.387083         3.332784         0.663289
