19
Iteration:  1827
 O         0.523239         0.801190         0.193608
 C        -0.812992         0.913097         0.660859
 C        -1.256136         0.934686         2.122339
 C        -2.447169         1.320711         1.319472
 O        -3.754491         1.695147         1.734096
 C        -2.134115         0.172303         0.234998
 C        -2.593638         0.692033        -1.074797
 C        -2.388089         2.234869        -1.024158
 C        -1.708291         2.266714         0.371836
 H         1.094043         0.006919         0.517751
 H        -1.332473         0.008165         2.730450
 H        -0.760596         1.788055         2.733207
 H        -4.229887         0.796088         2.052350
 H        -2.221258        -0.966451         0.392811
 H        -1.964258         0.320506        -1.928108
 H        -3.572088         0.305946        -1.372093
 H        -1.648312         2.529460        -1.832377
 H        -3.272365         2.886671        -1.090941
 H        -1.305492         3.157798         0.933325
