19
Iteration:  4496
 O         0.483781         0.810721         0.249523
 C        -0.804151         1.006258         0.693475
 C        -1.282037         1.170530         2.196321
 C        -2.504315         1.319599         1.284244
 O        -3.803491         1.599889         1.640448
 C        -2.141534         0.164360         0.356499
 C        -2.569254         0.528252        -0.977369
 C        -2.283797         2.056776        -1.097736
 C        -1.653605         2.222853         0.276727
 H         0.288909         0.947485        -0.764541
 H        -1.066071         0.251055         2.757200
 H        -0.899757         1.982436         2.802951
 H        -3.722131         2.142301         2.423909
 H        -2.041677        -0.889554         0.577126
 H        -1.840753         0.035121        -1.686993
 H        -3.588274         0.268008        -1.149649
 H        -1.667024         2.339162        -1.981092
 H        -3.125478         2.694765        -1.290317
 H        -1.358614         3.207036         0.597594
