19
Iteration:  4436charge 0 multiplicity 1
 O         0.462255         0.778468         0.256785
 C        -0.810379         1.012272         0.725234
 C        -1.297589         1.263413         2.148396
 C        -2.518227         1.268741         1.249030
 O        -3.734374         1.579440         1.852339
 C        -2.154411         0.176599         0.279126
 C        -2.499833         0.481650        -1.103944
 C        -2.178825         2.091631        -1.100604
 C        -1.773691         2.207872         0.295614
 H         0.550124         0.974073        -0.613346
 H        -1.195362         0.276861         2.634533
 H        -1.001824         2.212058         2.704558
 H        -3.994961         2.449591         1.569264
 H        -2.254137        -0.853222         0.666792
 H        -2.323246        -0.270620        -1.824717
 H        -3.638474         0.366714        -1.066323
 H        -1.349974         2.448880        -1.628461
 H        -3.193393         2.550668        -1.329482
 H        -1.443424         3.259588         0.546276
