19
Iteration:  2809charge 0 multiplicity 1
 O         0.480270         0.673447         0.286618
 C        -0.754494         0.968317         0.711970
 C        -1.220370         1.075812         2.163072
 C        -2.484396         1.368854         1.297935
 O        -3.845106         1.536840         1.773705
 C        -2.185599         0.235209         0.180706
 C        -2.590777         0.648553        -1.178361
 C        -2.274980         2.200675        -1.014566
 C        -1.639740         2.280222         0.381621
 H         0.382516         0.583888        -0.702695
 H        -1.092402         0.149348         2.725767
 H        -0.855858         2.036651         2.518008
 H        -3.967016         0.735950         2.488948
 H        -2.180513        -0.855789         0.425825
 H        -1.824005         0.437830        -1.982586
 H        -3.625080         0.645301        -1.431231
 H        -1.744285         2.743738        -1.891940
 H        -3.217052         2.784237        -1.028557
 H        -1.233493         3.214234         0.722043
