19
Iteration:  4486charge 0 multiplicity 1
 O         0.465505         0.868579         0.201827
 C        -0.818376         1.023778         0.704356
 C        -1.238852         1.037053         2.148395
 C        -2.515778         1.373075         1.283587
 O        -3.792548         1.610434         1.639757
 C        -2.187850         0.153928         0.475360
 C        -2.527193         0.519957        -1.029275
 C        -2.223549         2.029399        -1.152949
 C        -1.674379         2.282767         0.348201
 H         0.616601         0.966282        -0.857455
 H        -1.237426         0.073905         2.714985
 H        -0.889949         1.851465         2.726464
 H        -3.956426         2.311843         2.291778
 H        -2.237097        -0.797547         1.008818
 H        -2.044666        -0.233485        -1.730879
 H        -3.554172         0.285459        -1.248094
 H        -1.560216         2.316762        -2.014743
 H        -3.179431         2.378863        -1.019118
 H        -1.489853         3.318465         0.640138
