19
Iteration:  2396
 O         0.472122         0.818977         0.071137
 C        -0.779553         0.984316         0.684180
 C        -1.216260         0.989657         2.240002
 C        -2.550707         1.237860         1.358200
 O        -3.874508         1.574729         1.832100
 C        -2.246298         0.173811         0.264928
 C        -2.633410         0.814475        -1.168066
 C        -2.101457         2.186952        -1.064910
 C        -1.630754         2.239996         0.380222
 H         1.010633         0.168315         0.586383
 H        -0.922130         0.156924         2.800864
 H        -1.006952         1.996191         2.577390
 H        -4.240209         0.615565         2.182207
 H        -2.451556        -0.903338         0.274511
 H        -2.153425         0.372292        -1.984869
 H        -3.751357         0.640488        -1.404939
 H        -1.239049         2.016831        -1.753184
 H        -2.669840         3.053544        -1.392026
 H        -1.240958         3.241366         0.637374
