19
Iteration:   234
 O         0.462157         0.820212         0.158287
 C        -0.865598         0.922022         0.668245
 C        -1.203373         0.903201         2.159119
 C        -2.488034         1.348406         1.314394
 O        -3.848826         1.419439         1.750357
 C        -2.165316         0.251438         0.233870
 C        -2.641338         0.755246        -1.102961
 C        -2.187176         2.268073        -1.019958
 C        -1.603764         2.292480         0.391316
 H         0.831365        -0.045222         0.132100
 H        -1.372401        -0.015609         2.734402
 H        -0.631146         1.611123         2.770150
 H        -4.107903         2.298382         2.165708
 H        -2.441133        -0.837973         0.470921
 H        -1.940425         0.306248        -1.835273
 H        -3.674896         0.459609        -1.380444
 H        -1.447080         2.403965        -1.772019
 H        -3.010102         2.963402        -1.053181
 H        -1.166366         3.303572         0.807634
