19
Iteration:  4031
 O         0.483392         0.774331         0.316552
 C        -0.807138         0.889705         0.679977
 C        -1.313791         1.025951         2.151755
 C        -2.463324         1.357223         1.250808
 O        -3.814062         1.551923         1.781634
 C        -2.118431         0.171960         0.168061
 C        -2.589861         0.693070        -1.162822
 C        -2.214354         2.271390        -1.044224
 C        -1.693249         2.242146         0.354415
 H         0.776999         0.151101        -0.471355
 H        -1.564062         0.147169         2.774397
 H        -0.984838         1.858280         2.712746
 H        -3.477451         1.465820         2.747253
 H        -2.175410        -0.932282         0.379303
 H        -2.113806         0.176147        -1.985710
 H        -3.703993         0.507325        -1.180213
 H        -1.618548         2.691700        -1.822604
 H        -3.109158         2.908783        -1.119539
 H        -1.335930         3.164342         0.929091
