19
Iteration:  1386charge 0 multiplicity 1
 O         0.536233         0.663897         0.206695
 C        -0.725331         0.994445         0.606359
 C        -1.238846         0.962528         2.144475
 C        -2.487991         1.345442         1.294091
 O        -3.764812         1.613161         1.715509
 C        -2.076030         0.222210         0.214726
 C        -2.730536         0.723193        -1.036379
 C        -2.337102         2.191907        -1.007763
 C        -1.693506         2.232947         0.389510
 H         1.122990         1.439732         0.476149
 H        -1.369579         0.000767         2.641164
 H        -0.898324         1.741512         2.833381
 H        -4.206212         0.747658         1.716320
 H        -2.074440        -0.883036         0.517879
 H        -2.546549         0.365311        -2.003587
 H        -3.826597         0.623196        -0.963018
 H        -1.567312         2.527643        -1.681790
 H        -3.153677         2.894620        -1.064591
 H        -1.344202         3.208945         0.817666
