19
Iteration:   498charge 0 multiplicity 1
 O         0.474141         0.785175         0.105328
 C        -0.807781         1.026810         0.640659
 C        -1.236545         0.907361         2.227317
 C        -2.538363         1.263848         1.435648
 O        -3.874724         1.580042         1.909244
 C        -2.098704         0.160058         0.124067
 C        -2.565546         0.723204        -1.228425
 C        -2.185070         2.246303        -1.090508
 C        -1.712473         2.251011         0.374409
 H         0.716084        -0.061640         0.368163
 H        -1.062307        -0.167034         2.634050
 H        -0.888635         1.791526         2.807228
 H        -3.752156         2.417704         2.435107
 H        -2.259952        -0.962074         0.440689
 H        -1.886916         0.264535        -1.961835
 H        -3.685616         0.620570        -1.334620
 H        -1.347561         2.386414        -1.712692
 H        -3.040016         2.878356        -1.347121
 H        -1.652665         3.219630         0.946413
