19
Iteration:  1791charge 0 multiplicity 1
 O         0.395316         0.804485         0.028103
 C        -0.832718         0.950339         0.703530
 C        -1.273088         0.900866         2.185370
 C        -2.555546         1.332559         1.328640
 O        -3.815583         1.677465         1.882869
 C        -2.153522         0.210714         0.271813
 C        -2.405689         0.645890        -1.147695
 C        -2.223090         2.195463        -1.120353
 C        -1.708318         2.298625         0.389634
 H         0.927161         0.033472         0.469730
 H        -1.301966        -0.183954         2.685311
 H        -0.792456         1.750906         2.816422
 H        -3.902629         1.099153         2.767748
 H        -2.268597        -0.899922         0.430007
 H        -1.574563         0.247903        -1.757496
 H        -3.436352         0.369964        -1.565690
 H        -1.491125         2.633463        -1.941813
 H        -3.195376         2.735533        -1.285633
 H        -1.422166         3.274504         0.778723
