19
Iteration:  2518charge 0 multiplicity 1
 O         0.510529         0.643040         0.255761
 C        -0.826229         1.011866         0.625374
 C        -1.272036         0.903803         2.032505
 C        -2.524287         1.369743         1.256879
 O        -3.803168         1.672318         1.792600
 C        -2.035697         0.264936         0.225773
 C        -2.547540         0.597255        -1.101087
 C        -2.304090         2.225948        -0.994004
 C        -1.712241         2.327436         0.460049
 H         0.480119         0.715936        -0.659521
 H        -1.262668        -0.097954         2.499876
 H        -0.888770         1.717235         2.668339
 H        -4.116675         0.923262         2.161034
 H        -2.055782        -0.780705         0.644825
 H        -1.999386         0.231780        -1.881947
 H        -3.531833         0.071892        -1.274090
 H        -1.576945         2.707454        -1.639987
 H        -3.193991         2.923288        -1.081395
 H        -1.502127         3.308796         1.035883
