19
Iteration:  4453charge 0 multiplicity 1
 O         0.474388         0.836413         0.192215
 C        -0.850899         1.035325         0.682756
 C        -1.237691         1.067682         2.171840
 C        -2.569025         1.335780         1.345955
 O        -3.851034         1.654685         1.810615
 C        -2.051216         0.117968         0.395196
 C        -2.549456         0.532386        -1.082715
 C        -2.187245         2.004485        -1.168002
 C        -1.727432         2.237986         0.334385
 H         0.563233         1.060871        -0.722768
 H        -1.206406         0.164233         2.811013
 H        -0.930072         1.984088         2.604886
 H        -3.998388         2.588138         1.691938
 H        -2.006174        -0.927858         0.706808
 H        -1.864610         0.008448        -1.818477
 H        -3.591622         0.259902        -1.292098
 H        -1.450327         2.234832        -2.057828
 H        -2.916503         2.709345        -1.503244
 H        -1.499454         3.250895         0.703009
