19
Iteration:  2344charge 0 multiplicity 1
 O         0.539271         0.871352         0.207772
 C        -0.775973         0.968108         0.650947
 C        -1.251499         0.857618         2.194974
 C        -2.479329         1.307421         1.370111
 O        -3.811845         1.745569         1.732478
 C        -2.134059         0.201613         0.218932
 C        -2.628833         0.670647        -1.225401
 C        -2.346067         2.217286        -1.027092
 C        -1.620792         2.165579         0.411120
 H         0.879113        -0.097410         0.391713
 H        -1.435825        -0.164193         2.550756
 H        -0.785689         1.495609         2.952668
 H        -4.227754         1.061651         2.392823
 H        -2.218222        -0.901137         0.287658
 H        -1.965927         0.245515        -2.026123
 H        -3.732877         0.409028        -1.446439
 H        -1.782039         2.656710        -1.833518
 H        -3.302871         2.772956        -0.864792
 H        -1.222492         3.181754         0.734543
