19
Iteration:  1923
 O         0.420864         0.882809         0.057010
 C        -0.883025         0.964060         0.658778
 C        -1.307715         0.996719         2.069332
 C        -2.546468         1.225424         1.292241
 O        -3.698868         1.664531         1.874763
 C        -2.250914         0.140459         0.298155
 C        -2.484415         0.648779        -1.136493
 C        -2.058042         2.217215        -1.007019
 C        -1.756867         2.222944         0.445265
 H         0.748850        -0.084861         0.255726
 H        -1.240530         0.091285         2.780091
 H        -1.180816         1.948333         2.709033
 H        -4.040972         0.979704         2.470384
 H        -2.333306        -0.941884         0.496846
 H        -1.893706         0.077809        -1.904487
 H        -3.468999         0.637610        -1.728504
 H        -1.106471         2.537103        -1.668805
 H        -2.864137         2.936957        -1.289424
 H        -1.721846         3.257279         0.835229
