19
Iteration:  2042
 O         0.517048         0.817471         0.100886
 C        -0.802803         1.048011         0.645270
 C        -1.308913         0.902215         2.265098
 C        -2.445334         1.410394         1.369993
 O        -3.761259         1.562658         1.687219
 C        -2.164745         0.236903         0.284719
 C        -2.698713         0.740896        -1.119803
 C        -2.231368         2.190819        -1.069348
 C        -1.677534         2.233515         0.374604
 H         0.680985        -0.071972         0.633773
 H        -1.267126        -0.126644         2.614316
 H        -0.850044         1.471962         3.036434
 H        -4.131237         0.599369         1.966467
 H        -2.063255        -0.842079         0.442162
 H        -2.124462         0.144790        -1.914067
 H        -3.827149         0.467495        -0.997759
 H        -1.295575         2.311940        -1.672050
 H        -3.113532         2.871440        -1.192854
 H        -1.146895         3.130544         0.767801
