19
Iteration:   502charge 0 multiplicity 1
 O         0.454242         0.814362         0.093907
 C        -0.774925         1.044099         0.680264
 C        -1.246760         0.901513         2.221545
 C        -2.502174         1.236655         1.384902
 O        -3.861580         1.584751         1.886354
 C        -2.132016         0.145045         0.175446
 C        -2.578199         0.718331        -1.227729
 C        -2.177083         2.236319        -1.041269
 C        -1.722735         2.238022         0.382630
 H         0.625611        -0.194541         0.229766
 H        -1.071918        -0.084296         2.586763
 H        -0.895122         1.735687         2.852318
 H        -3.793849         2.451295         2.314323
 H        -2.182518        -0.868704         0.372273
 H        -2.047563         0.192174        -2.041460
 H        -3.651599         0.610598        -1.357532
 H        -1.293477         2.440740        -1.706917
 H        -2.920548         2.948061        -1.390671
 H        -1.647735         3.317359         0.857470
