19
Iteration:   580
 O         0.483836         0.689655         0.233979
 C        -0.888541         0.972644         0.592242
 C        -1.246367         1.021559         2.118724
 C        -2.466980         1.301176         1.281323
 O        -3.740857         1.453434         1.714759
 C        -2.018070         0.204530         0.241804
 C        -2.650926         0.758906        -1.100866
 C        -2.281413         2.326317        -0.937284
 C        -1.750047         2.286691         0.403897
 H         0.388078        -0.191032        -0.131796
 H        -1.383728         0.058429         2.560034
 H        -0.838950         1.780802         2.764805
 H        -3.768218         2.057911         2.380350
 H        -2.006313        -0.810887         0.544206
 H        -2.208958         0.337319        -2.042915
 H        -3.719252         0.596768        -1.105870
 H        -1.411912         2.451801        -1.654573
 H        -3.162099         2.967544        -1.228807
 H        -1.146119         3.171129         0.844659
