19
Iteration:  3154charge 0 multiplicity 1
 O         0.476618         0.667788         0.229770
 C        -0.861989         1.082299         0.586769
 C        -1.240600         0.890170         2.185040
 C        -2.473450         1.212282         1.313296
 O        -3.827746         1.596648         1.707511
 C        -2.133711         0.238892         0.249729
 C        -2.514780         0.644774        -1.131628
 C        -2.233184         2.280024        -1.015357
 C        -1.758255         2.282424         0.488342
 H         0.481048         1.068979        -0.718709
 H        -1.380322        -0.190287         2.379629
 H        -0.861493         1.564711         2.960815
 H        -3.591368         2.160039         2.380643
 H        -2.031186        -0.843224         0.427221
 H        -1.901717         0.123728        -1.892992
 H        -3.597475         0.523811        -1.307991
 H        -1.403463         2.748676        -1.605189
 H        -3.157290         2.979440        -1.254119
 H        -1.349653         3.229006         0.832841
