19
Iteration:  4517
 O         0.561574         0.658769         0.336647
 C        -0.736908         1.003936         0.643243
 C        -1.241635         1.266410         2.140432
 C        -2.527339         1.396068         1.296950
 O        -3.874286         1.552510         1.730433
 C        -2.027275         0.151494         0.316201
 C        -2.628013         0.535723        -1.203094
 C        -2.313637         2.049295        -1.101172
 C        -1.738821         2.268740         0.358891
 H         0.728021         0.818647        -0.530960
 H        -1.048276         0.581903         2.987765
 H        -0.858653         2.204003         2.601588
 H        -3.958452         2.052366         2.569953
 H        -1.994609        -0.805215         0.851247
 H        -2.173082         0.053451        -2.122426
 H        -3.656235         0.356761        -1.039443
 H        -1.717467         2.538685        -1.909483
 H        -3.241417         2.634750        -1.135636
 H        -1.510443         3.287120         0.547243
