19
Iteration:  4326
 O         0.483774         0.805491         0.206006
 C        -0.848623         1.040876         0.659428
 C        -1.232920         1.034337         2.181928
 C        -2.477204         1.392243         1.331510
 O        -3.819119         1.619155         1.625173
 C        -2.154181         0.189766         0.387231
 C        -2.511519         0.490619        -1.044476
 C        -2.240125         2.079348        -1.097656
 C        -1.776241         2.290688         0.352979
 H         0.565549         0.864558        -0.837187
 H        -1.141621         0.055245         2.758706
 H        -0.728747         1.773445         2.834076
 H        -3.844552         1.839789         2.603386
 H        -2.176616        -0.766606         0.952534
 H        -1.790313         0.032115        -1.713979
 H        -3.591237         0.281071        -1.333809
 H        -1.442298         2.251288        -1.773813
 H        -3.233535         2.522437        -1.367419
 H        -1.364058         3.314820         0.634747
