19
Iteration:  1379
 O         0.500836         0.690654         0.267861
 C        -0.817042         0.998255         0.549816
 C        -1.246739         0.986070         2.117800
 C        -2.447637         1.268766         1.335903
 O        -3.747175         1.614141         1.686950
 C        -2.060451         0.186571         0.225516
 C        -2.751337         0.746359        -1.050582
 C        -2.309125         2.251329        -0.962152
 C        -1.649199         2.213993         0.360592
 H         1.061544         1.435606         0.382668
 H        -1.224958         0.028684         2.663992
 H        -0.695984         1.901850         2.748389
 H        -4.350406         0.741573         1.739005
 H        -2.132978        -0.817108         0.465012
 H        -2.509103         0.136300        -2.015835
 H        -3.818866         0.552307        -0.846141
 H        -1.591642         2.476488        -1.785099
 H        -3.207305         2.868534        -1.067710
 H        -1.205371         3.155997         0.822855
