19
Iteration:   928charge 0 multiplicity 1
 O         0.498874         0.837072         0.057554
 C        -0.771271         1.010064         0.611959
 C        -1.310607         0.799886         2.145702
 C        -2.530673         1.344297         1.307233
 O        -3.840141         1.599088         1.753910
 C        -2.205806         0.239647         0.235647
 C        -2.550968         0.722340        -1.098364
 C        -2.212155         2.186979        -0.925683
 C        -1.601539         2.305395         0.466057
 H         0.811809        -0.098273        -0.048459
 H        -1.544382        -0.182968         2.368849
 H        -0.910953         1.401099         3.010997
 H        -3.901292         1.205146         2.557729
 H        -2.413757        -0.767086         0.476651
 H        -1.916876         0.252247        -1.850228
 H        -3.580789         0.555520        -1.297547
 H        -1.632313         2.542619        -1.832821
 H        -3.194221         2.799236        -0.846203
 H        -1.059322         3.196704         0.869585
