19
Iteration:  3108charge 0 multiplicity 1
 O         0.544921         0.760768         0.268075
 C        -0.782384         0.930122         0.614458
 C        -1.291707         0.970882         2.109648
 C        -2.560279         1.292380         1.309340
 O        -3.783287         1.536194         1.702667
 C        -2.168839         0.172738         0.313655
 C        -2.695744         0.728081        -1.140584
 C        -2.231141         2.289010        -1.033157
 C        -1.557902         2.209106         0.429613
 H         0.584573         1.147082        -0.688701
 H        -1.190045        -0.034265         2.636361
 H        -0.978449         1.834748         2.735306
 H        -4.193838         1.382937         2.499164
 H        -2.409818        -0.855658         0.617021
 H        -2.064613         0.276025        -1.956137
 H        -3.722435         0.670677        -1.468889
 H        -1.368830         2.583348        -1.723936
 H        -3.001062         3.129278        -1.026437
 H        -1.380047         3.173716         0.919730
