19
Iteration:    42charge 0 multiplicity 1
 O         0.351857         0.821910         0.102735
 C        -0.863033         0.934098         0.727598
 C        -1.253627         0.835705         2.232943
 C        -2.487854         1.282566         1.279762
 O        -3.788317         1.408068         1.834404
 C        -2.144806         0.261565         0.222558
 C        -2.586625         0.844262        -1.190746
 C        -2.076189         2.288928        -1.085494
 C        -1.666897         2.242506         0.440658
 H         1.115146         0.433115         0.619870
 H        -1.348180        -0.221173         2.662654
 H        -0.848443         1.660352         2.804434
 H        -4.055055         2.350058         1.890816
 H        -2.466102        -0.786112         0.374310
 H        -2.243990         0.263081        -2.080691
 H        -3.710303         0.864640        -1.315427
 H        -1.282216         2.530557        -1.734441
 H        -2.912519         2.955573        -1.278440
 H        -1.318529         3.161489         0.844134
