19
Iteration:  2336
 O         0.588763         0.859904         0.208223
 C        -0.765131         0.922032         0.664420
 C        -1.262260         0.893909         2.155958
 C        -2.494268         1.251233         1.288884
 O        -3.766385         1.745412         1.708065
 C        -2.224133         0.227926         0.247328
 C        -2.560628         0.677450        -1.254734
 C        -2.375165         2.233188        -0.990137
 C        -1.664602         2.189252         0.446709
 H         0.693207        -0.214548         0.321011
 H        -1.184647        -0.087396         2.817647
 H        -0.925299         1.691668         2.882260
 H        -3.975911         1.057299         2.425520
 H        -2.251975        -0.851965         0.549522
 H        -2.062941         0.061860        -2.070242
 H        -3.595985         0.550919        -1.327912
 H        -1.973002         2.755504        -1.864178
 H        -3.389020         2.717713        -0.840865
 H        -1.329804         3.083619         1.045897
