19
Iteration:  3629charge 0 multiplicity 1
 O         0.466721         0.626453         0.169262
 C        -0.841843         1.036374         0.638149
 C        -1.175804         0.900658         2.126439
 C        -2.556801         1.252032         1.262685
 O        -3.808177         1.610544         1.904923
 C        -2.072586         0.203745         0.170437
 C        -2.590435         0.723922        -1.179381
 C        -2.179737         2.296228        -0.977968
 C        -1.775499         2.308465         0.416182
 H         1.188804         0.970068         0.753664
 H        -1.313470        -0.099152         2.654454
 H        -1.051320         1.738815         2.781082
 H        -4.560175         1.446332         1.340372
 H        -2.216120        -0.884010         0.246608
 H        -1.896109         0.188013        -1.874166
 H        -3.677567         0.648164        -1.345566
 H        -1.233292         2.440675        -1.499290
 H        -2.854144         3.064603        -1.446378
 H        -1.610283         3.207774         1.035593
