19
Iteration:  2868
 O         0.428508         0.858343         0.179862
 C        -0.843088         0.880262         0.697246
 C        -1.258946         0.966447         2.129922
 C        -2.524052         1.313132         1.335792
 O        -3.810849         1.690161         1.785550
 C        -2.129672         0.237643         0.281031
 C        -2.464413         0.614363        -1.146219
 C        -2.232608         2.192975        -0.992928
 C        -1.658793         2.199932         0.370035
 H         0.414561         0.408865        -0.725444
 H        -1.115908         0.063246         2.736413
 H        -0.818854         1.784137         2.723697
 H        -4.223523         0.890320         1.742780
 H        -2.248301        -0.800444         0.598767
 H        -2.016066         0.176652        -2.084434
 H        -3.517015         0.546191        -1.461369
 H        -1.702123         2.785131        -1.664912
 H        -3.254186         2.626894        -0.789186
 H        -1.060073         3.069134         0.694952
