19
Iteration:  3607charge 0 multiplicity 1
 O         0.420034         0.623178         0.237420
 C        -0.849957         0.966131         0.670736
 C        -1.376672         0.926096         2.132711
 C        -2.547243         1.379263         1.327130
 O        -3.709187         1.418070         1.971878
 C        -2.068513         0.277596         0.195150
 C        -2.569634         0.778208        -1.216688
 C        -2.204075         2.266327        -1.090955
 C        -1.598653         2.290124         0.300318
 H         0.998805         1.314512         0.579077
 H        -1.406424        -0.089748         2.680437
 H        -1.010104         1.744724         2.734082
 H        -4.377535         1.590881         1.238780
 H        -2.308494        -0.752716         0.510365
 H        -2.025738         0.255407        -2.055020
 H        -3.665882         0.896492        -1.324978
 H        -1.471690         2.688822        -1.761382
 H        -3.079505         2.975639        -1.242907
 H        -1.444655         3.270248         0.789322
