19
Iteration:  1544
 O         0.424116         0.699979         0.200895
 C        -0.785678         0.949592         0.666897
 C        -1.200153         0.971206         2.238658
 C        -2.430495         1.288113         1.313782
 O        -3.744829         1.601067         1.593441
 C        -2.100299         0.171410         0.257667
 C        -2.720421         0.751630        -1.064762
 C        -2.326687         2.241692        -0.979033
 C        -1.631882         2.242036         0.386710
 H         1.046255         1.468423        -0.053621
 H        -1.255665         0.028839         2.742232
 H        -0.837610         1.937066         2.709198
 H        -4.147311         0.872008         2.024422
 H        -2.067451        -0.852824         0.466982
 H        -2.424114         0.299212        -2.037892
 H        -3.782546         0.493673        -1.076468
 H        -1.584201         2.443463        -1.742166
 H        -3.083172         3.000265        -1.049723
 H        -1.382421         3.274570         0.775546
