19
Iteration:  2932
 O         0.523593         0.692772         0.336174
 C        -0.792806         0.993024         0.653928
 C        -1.273746         0.983999         2.118819
 C        -2.491841         1.315523         1.244965
 O        -3.796699         1.534688         1.770822
 C        -2.063419         0.235426         0.236690
 C        -2.725953         0.718747        -1.126081
 C        -2.241472         2.240272        -1.035245
 C        -1.702694         2.276910         0.320562
 H         0.507459         0.934790        -0.656471
 H        -1.216843         0.131338         2.826260
 H        -0.909238         1.837034         2.716039
 H        -3.837907         1.067001         2.570717
 H        -2.062947        -0.798589         0.627335
 H        -2.263839         0.067641        -1.926602
 H        -3.761180         0.437929        -1.028586
 H        -1.403812         2.422188        -1.791703
 H        -2.954463         3.092191        -1.344279
 H        -1.223469         3.175010         0.644099
