19
Iteration:    50
 O         0.368605         0.874373         0.089523
 C        -0.859884         0.927624         0.695500
 C        -1.342489         0.843034         2.165110
 C        -2.487886         1.302303         1.325410
 O        -3.746631         1.378086         1.822234
 C        -2.196375         0.230594         0.224143
 C        -2.623204         0.843869        -1.167344
 C        -2.086075         2.246670        -1.038961
 C        -1.554041         2.280444         0.408507
 H         0.826829         0.224733         0.821999
 H        -1.635209        -0.037759         2.799146
 H        -0.758011         1.519897         2.833063
 H        -4.108826         2.341603         1.850334
 H        -2.291460        -0.923134         0.428436
 H        -1.982561         0.342398        -1.912505
 H        -3.717803         0.769975        -1.357280
 H        -1.282683         2.574517        -1.876496
 H        -2.963397         2.969915        -1.127402
 H        -1.239506         3.252439         0.908546
