19
Iteration:  4262
 O         0.488316         0.714482         0.357270
 C        -0.831813         1.001391         0.679745
 C        -1.191306         1.163744         2.172749
 C        -2.540934         1.358227         1.259571
 O        -3.738582         1.586626         1.827172
 C        -2.087055         0.205163         0.324352
 C        -2.582685         0.588329        -1.169651
 C        -2.289624         2.142576        -1.154443
 C        -1.765707         2.199755         0.310828
 H         0.716379         0.983244        -0.662221
 H        -1.005118         0.241527         2.742106
 H        -0.644966         2.019041         2.602146
 H        -4.469014         0.975888         1.513413
 H        -2.378454        -0.783520         0.720197
 H        -2.003057        -0.029805        -1.810561
 H        -3.680383         0.384027        -1.208834
 H        -1.586134         2.697991        -1.825285
 H        -3.153094         2.804014        -1.430049
 H        -1.318406         3.152877         0.653226
