19
Iteration:  3353charge 0 multiplicity 1
 O         0.525139         0.716588         0.238451
 C        -0.926865         0.838430         0.615511
 C        -1.233451         0.932804         2.114405
 C        -2.470394         1.439813         1.349912
 O        -3.813378         1.491731         1.892811
 C        -2.216910         0.232623         0.209410
 C        -2.481039         0.757616        -1.176579
 C        -2.291425         2.236583        -1.025289
 C        -1.658394         2.264938         0.411693
 H         0.753270         1.510010        -0.148406
 H        -1.379072         0.008597         2.634439
 H        -0.754686         1.764386         2.683761
 H        -4.314261         1.932402         1.108581
 H        -2.324874        -0.827309         0.390100
 H        -1.781973         0.236424        -1.823020
 H        -3.413675         0.357134        -1.624493
 H        -1.457764         2.455171        -1.668610
 H        -3.256263         2.832524        -1.197128
 H        -1.117038         3.129028         0.878463
