19
Iteration:   891
 O         0.428154         0.825057         0.240581
 C        -0.837412         0.929982         0.608553
 C        -1.209439         0.941558         2.167725
 C        -2.461416         1.256322         1.298851
 O        -3.687455         1.592367         1.725611
 C        -2.101404         0.167091         0.112617
 C        -2.698305         0.852853        -1.127625
 C        -2.253253         2.241133        -0.964247
 C        -1.686853         2.208882         0.447079
 H         0.650428        -0.030223         0.570827
 H        -0.984920         0.031969         2.720637
 H        -0.756960         1.721257         2.703577
 H        -4.028166         0.897535         2.295633
 H        -2.391385        -0.946338         0.276479
 H        -2.435969         0.413646        -2.116879
 H        -3.892040         0.855276        -1.106156
 H        -1.491828         2.413277        -1.731164
 H        -3.124968         2.877401        -1.194739
 H        -1.412040         3.096386         0.912709
