19
Iteration:   947
 O         0.298254         0.816624         0.074516
 C        -0.856186         0.928724         0.698687
 C        -1.254410         0.822243         2.229231
 C        -2.494904         1.304632         1.355717
 O        -3.727220         1.618693         1.748287
 C        -2.077496         0.221440         0.237923
 C        -2.469985         0.749591        -1.209484
 C        -2.240283         2.325811        -1.000861
 C        -1.707458         2.223735         0.446016
 H         0.561187        -0.192056        -0.040419
 H        -1.137505        -0.167126         2.664814
 H        -0.767439         1.672366         2.704471
 H        -3.926679         1.346011         2.604287
 H        -2.176933        -0.863819         0.589922
 H        -1.805876         0.284509        -1.968750
 H        -3.583965         0.470575        -1.520831
 H        -1.462070         2.712783        -1.668040
 H        -3.152298         2.943583        -1.238131
 H        -1.479096         3.097278         0.926318
