19
Iteration:  1993
 O         0.466766         0.744980         0.196212
 C        -0.762278         0.927279         0.649753
 C        -1.226573         1.012669         2.200780
 C        -2.422806         1.239349         1.381155
 O        -3.782679         1.655542         1.654310
 C        -2.100907         0.184951         0.215072
 C        -2.634125         0.707075        -1.175152
 C        -2.378401         2.278945        -0.956602
 C        -1.682006         2.260431         0.401795
 H         0.786367        -0.156143         0.369300
 H        -1.079741         0.142101         2.925914
 H        -0.770425         1.913984         2.761736
 H        -4.255704         1.028169         2.111375
 H        -2.137164        -0.910042         0.415355
 H        -1.945332         0.431435        -1.976977
 H        -3.589479         0.302233        -1.466673
 H        -1.740818         2.612554        -1.794684
 H        -3.336266         2.836598        -1.056466
 H        -1.389081         3.244142         0.806503
