19
Iteration:  1891charge 0 multiplicity 1
 O         0.431733         0.825348         0.095788
 C        -0.766187         0.909580         0.722196
 C        -1.199052         0.899471         2.206708
 C        -2.501721         1.438565         1.394926
 O        -3.883047         1.577865         1.742491
 C        -2.091922         0.197854         0.265388
 C        -2.615700         0.696588        -1.131526
 C        -2.146801         2.224332        -1.110748
 C        -1.693812         2.292273         0.380618
 H         0.755039        -0.087211         0.297159
 H        -1.355485        -0.163748         2.724420
 H        -0.681634         1.719440         2.930180
 H        -4.095406         0.683307         2.271922
 H        -2.148639        -0.894763         0.608012
 H        -2.316732         0.088058        -2.023543
 H        -3.758726         0.771469        -0.966243
 H        -1.392303         2.520928        -2.016744
 H        -3.087769         2.815829        -1.252610
 H        -1.513443         3.377469         0.588975
