19
Iteration:    40
 O         0.354797         0.811168         0.101055
 C        -0.853691         0.933069         0.726758
 C        -1.239309         0.839363         2.231252
 C        -2.505217         1.281775         1.284021
 O        -3.796750         1.409810         1.835068
 C        -2.142651         0.268517         0.208924
 C        -2.576172         0.837226        -1.191885
 C        -2.082055         2.292090        -1.078896
 C        -1.690148         2.237935         0.444234
 H         1.190943         0.439979         0.621547
 H        -1.273573        -0.219229         2.625542
 H        -0.876061         1.679202         2.842898
 H        -4.043077         2.424050         1.897013
 H        -2.476881        -0.815212         0.402825
 H        -2.284545         0.249101        -2.086164
 H        -3.701310         0.861853        -1.282910
 H        -1.187957         2.540529        -1.753800
 H        -2.911356         3.009573        -1.303126
 H        -1.297500         3.180530         0.873755
