19
Iteration:   341charge 0 multiplicity 1
 O         0.372758         0.691102         0.239775
 C        -0.837080         0.973955         0.744126
 C        -1.232487         0.891841         2.184467
 C        -2.530448         1.258700         1.322754
 O        -3.735169         1.522588         1.876383
 C        -2.117769         0.250273         0.130317
 C        -2.517025         0.746078        -1.251190
 C        -2.177770         2.230403        -1.102361
 C        -1.777531         2.272209         0.431275
 H         0.607748         1.266552        -0.503595
 H        -0.997924        -0.009583         2.749832
 H        -0.743065         1.832079         2.585297
 H        -3.777127         2.436299         2.153670
 H        -2.080660        -0.804343         0.383651
 H        -2.313443         0.082437        -2.111189
 H        -3.595498         0.637453        -1.095336
 H        -1.367757         2.639468        -1.712160
 H        -2.994288         2.943674        -1.339415
 H        -1.659940         3.234568         0.835461
