19
Iteration:  2366
 O         0.423306         0.872328         0.152741
 C        -0.864233         0.933743         0.630050
 C        -1.309368         0.822541         2.072124
 C        -2.491340         1.363113         1.264813
 O        -3.762275         1.697865         1.788578
 C        -2.053483         0.161646         0.239528
 C        -2.561193         0.662741        -1.070863
 C        -2.194744         2.211719        -1.008078
 C        -1.702658         2.290278         0.454579
 H         0.825830         0.189679         0.664688
 H        -1.357731        -0.181553         2.506286
 H        -0.868558         1.545136         2.757527
 H        -4.097197         0.887439         2.024102
 H        -2.231639        -0.904470         0.520512
 H        -2.248516         0.166647        -2.029954
 H        -3.718932         0.597032        -0.941318
 H        -1.433711         2.278507        -1.754749
 H        -3.061717         2.859053        -1.315458
 H        -1.257896         3.279484         0.826987
