19
Iteration:  4498
 O         0.487417         0.799817         0.248508
 C        -0.808351         1.014622         0.697183
 C        -1.273653         1.185061         2.204726
 C        -2.501270         1.314680         1.291122
 O        -3.813456         1.599160         1.644821
 C        -2.116405         0.171522         0.346499
 C        -2.573920         0.524996        -0.989936
 C        -2.300116         2.060806        -1.079724
 C        -1.656271         2.212227         0.261519
 H         0.329842         0.924630        -0.676879
 H        -1.125399         0.233363         2.756413
 H        -0.929681         2.041238         2.739655
 H        -3.700171         2.124842         2.437647
 H        -2.079523        -0.896437         0.545699
 H        -1.874514         0.049025        -1.713080
 H        -3.611390         0.259203        -1.185725
 H        -1.644700         2.329675        -1.969220
 H        -3.079077         2.714237        -1.319792
 H        -1.309537         3.200580         0.627356
