19
Iteration:  1435charge 0 multiplicity 1
 O         0.258894         0.738068         0.051857
 C        -0.869295         0.937711         0.676015
 C        -1.185702         1.048751         2.128534
 C        -2.581677         1.290607         1.298854
 O        -3.766565         1.622664         1.834501
 C        -2.160740         0.159613         0.238984
 C        -2.428721         0.672544        -1.178554
 C        -2.158865         2.203069        -0.965710
 C        -1.703974         2.291980         0.427242
 H         1.073478         0.786412         0.560781
 H        -1.034699         0.105123         2.783331
 H        -0.649895         2.029547         2.608690
 H        -4.055565         0.903924         2.518169
 H        -2.226228        -0.825635         0.556900
 H        -1.659991         0.291344        -1.970742
 H        -3.397433         0.304158        -1.569164
 H        -1.427707         2.627157        -1.681302
 H        -3.125425         2.748641        -1.095614
 H        -1.317885         3.182514         0.905050
