19
Iteration:  1333charge 0 multiplicity 1
 O         0.582920         0.685369         0.134268
 C        -0.793918         0.925982         0.613638
 C        -1.345477         0.917250         2.131150
 C        -2.519449         1.355980         1.339223
 O        -3.808673         1.628755         1.741842
 C        -2.060659         0.229617         0.238685
 C        -2.609931         0.637597        -1.078170
 C        -2.281693         2.231279        -0.981688
 C        -1.699847         2.341950         0.450162
 H         0.618011         1.345933        -0.633350
 H        -1.367766        -0.088575         2.612688
 H        -0.822546         1.693343         2.972729
 H        -4.148571         0.915588         2.388677
 H        -2.126018        -0.814364         0.564264
 H        -2.095824         0.215799        -1.985494
 H        -3.692296         0.431096        -1.266998
 H        -1.521781         2.582492        -1.672756
 H        -3.174385         2.839298        -1.117868
 H        -1.319788         3.350782         0.872623
