19
Iteration:  4332
 O         0.500050         0.816274         0.197937
 C        -0.834371         1.074929         0.646966
 C        -1.203764         1.057420         2.161322
 C        -2.496073         1.391247         1.348343
 O        -3.840552         1.648551         1.611776
 C        -2.196180         0.208824         0.370579
 C        -2.515808         0.433210        -1.037756
 C        -2.231258         2.074909        -1.031415
 C        -1.747988         2.225525         0.364948
 H         0.509662         0.745428        -0.819715
 H        -1.077939         0.091910         2.642904
 H        -0.864702         1.895178         2.780211
 H        -4.017264         1.643044         2.570917
 H        -2.115990        -0.781842         0.813235
 H        -1.816450         0.020899        -1.805959
 H        -3.548230         0.273813        -1.285060
 H        -1.484047         2.398177        -1.834855
 H        -3.078441         2.698138        -1.297003
 H        -1.355298         3.163057         0.713201
