19
Iteration:   503
 O         0.450557         0.820263         0.091789
 C        -0.771319         1.045691         0.688397
 C        -1.248451         0.902666         2.216168
 C        -2.497278         1.230475         1.370556
 O        -3.856733         1.581293         1.878968
 C        -2.138812         0.149045         0.188607
 C        -2.580181         0.717369        -1.224763
 C        -2.174409         2.231043        -1.031966
 C        -1.725171         2.238774         0.389605
 H         0.609476        -0.211089         0.198907
 H        -1.081406        -0.067578         2.586223
 H        -0.895309         1.712068         2.863180
 H        -3.795223         2.507276         2.315014
 H        -2.165574        -0.881026         0.363684
 H        -2.087070         0.179125        -2.061254
 H        -3.642124         0.603856        -1.366891
 H        -1.279091         2.456487        -1.705494
 H        -2.909010         2.971821        -1.393030
 H        -1.631235         3.297279         0.818817
