19
Iteration:  1227
 O         0.527620         0.739942         0.127117
 C        -0.765407         0.928389         0.617759
 C        -1.172578         0.901777         2.082987
 C        -2.516158         1.334264         1.282043
 O        -3.880921         1.623145         1.638112
 C        -2.076804         0.205904         0.302425
 C        -2.678718         0.721214        -1.001654
 C        -2.258002         2.279566        -0.958556
 C        -1.676208         2.275620         0.432116
 H         0.958062         0.328601         0.899798
 H        -1.313038        -0.124779         2.456510
 H        -0.759700         1.584443         2.730344
 H        -4.250422         0.751303         2.124986
 H        -2.135387        -0.855942         0.535878
 H        -2.431892         0.187781        -1.949065
 H        -3.741529         0.854780        -0.961548
 H        -1.451311         2.660486        -1.693837
 H        -3.159890         2.977320        -1.093122
 H        -1.332411         3.245846         0.918915
