19
Iteration:  4025
 O         0.492225         0.772641         0.335542
 C        -0.836122         0.896244         0.672699
 C        -1.369350         0.995728         2.139032
 C        -2.462382         1.394583         1.250218
 O        -3.794167         1.507988         1.833357
 C        -2.064172         0.195615         0.155478
 C        -2.619076         0.727963        -1.181335
 C        -2.234710         2.268017        -1.073776
 C        -1.674607         2.210613         0.349119
 H         0.520267         0.132286        -0.313168
 H        -1.570472         0.118700         2.771443
 H        -0.740417         1.836871         2.657582
 H        -3.518783         1.759457         2.731766
 H        -2.105063        -0.817207         0.502056
 H        -1.881591         0.224032        -1.902083
 H        -3.680177         0.616030        -1.214315
 H        -1.474882         2.518173        -1.905279
 H        -3.141868         2.878691        -1.222610
 H        -1.451017         3.150889         0.766666
