19
Iteration:  4125
 O         0.451952         0.677961         0.241999
 C        -0.813753         0.924533         0.669157
 C        -1.208537         1.068087         2.070333
 C        -2.561932         1.312660         1.307478
 O        -3.832913         1.546187         1.805170
 C        -2.113491         0.246026         0.272243
 C        -2.511438         0.717450        -1.160237
 C        -2.186605         2.135162        -1.091140
 C        -1.745928         2.219389         0.392383
 H         0.871716         1.510744         0.116037
 H        -1.316245         0.208495         2.768402
 H        -0.951019         2.055241         2.620142
 H        -3.854822         1.793350         2.715196
 H        -2.318039        -0.834627         0.441478
 H        -1.949949         0.079945        -1.980840
 H        -3.609531         0.553501        -1.315827
 H        -1.456884         2.653886        -1.767981
 H        -3.023786         2.830263        -1.313182
 H        -1.595998         3.243647         0.747989
