19
Iteration:  1397
 O         0.601252         0.649343         0.081445
 C        -0.739507         0.959877         0.776275
 C        -1.270619         0.919849         2.161655
 C        -2.474706         1.349599         1.258480
 O        -3.811769         1.619466         1.763988
 C        -2.059897         0.264180         0.252083
 C        -2.721594         0.691828        -1.109651
 C        -2.318609         2.191400        -1.030219
 C        -1.714762         2.368059         0.399458
 H         1.234466         1.178392         0.521648
 H        -1.275894        -0.087456         2.557898
 H        -0.953663         1.608230         2.920138
 H        -4.296229         0.670167         1.898132
 H        -2.244599        -0.834582         0.556413
 H        -2.268026         0.134942        -1.874891
 H        -3.812970         0.610631        -1.037873
 H        -1.666835         2.369404        -1.874647
 H        -3.166299         2.857632        -1.132545
 H        -1.577179         3.430531         0.745825
