19
Iteration:  4142charge 0 multiplicity 1
 O         0.431129         0.679502         0.239328
 C        -0.876751         1.094333         0.649366
 C        -1.281920         1.010402         2.151044
 C        -2.512405         1.322672         1.279466
 O        -3.787325         1.600996         1.854827
 C        -2.147684         0.183597         0.257423
 C        -2.546505         0.575368        -1.164120
 C        -2.177847         2.195654        -1.118884
 C        -1.737870         2.324021         0.334767
 H         0.988858         1.288900         0.629813
 H        -1.078760         0.019727         2.528177
 H        -0.782800         1.749196         2.732405
 H        -3.759300         0.887431         2.486061
 H        -2.148541        -0.872907         0.526800
 H        -1.892780         0.178213        -1.880342
 H        -3.601234         0.499546        -1.371191
 H        -1.336250         2.354345        -1.805930
 H        -2.991688         2.852742        -1.464289
 H        -1.335292         3.256853         0.751983
