19
Iteration:  2333
 O         0.595849         0.836407         0.211058
 C        -0.770664         0.912769         0.674285
 C        -1.262769         0.903082         2.150037
 C        -2.518225         1.238872         1.256420
 O        -3.736789         1.736898         1.699305
 C        -2.240374         0.213562         0.233842
 C        -2.529892         0.690242        -1.230817
 C        -2.381138         2.230572        -0.970476
 C        -1.676679         2.216445         0.445650
 H         0.724819        -0.109159         0.248948
 H        -1.122871         0.000188         2.771993
 H        -0.989673         1.806691         2.744279
 H        -3.958296         1.062542         2.466609
 H        -2.314524        -0.814548         0.667669
 H        -2.066038         0.070895        -2.037803
 H        -3.683527         0.552744        -1.338053
 H        -1.974887         2.804142        -1.779698
 H        -3.411060         2.670306        -0.833619
 H        -1.381744         3.103212         1.116276
