19
Iteration:  2409charge 0 multiplicity 1
 O         0.435803         0.814896         0.103029
 C        -0.862146         0.898852         0.640926
 C        -1.194794         1.081842         2.122932
 C        -2.544801         1.329591         1.326590
 O        -3.891258         1.500182         1.847083
 C        -2.184523         0.215939         0.227876
 C        -2.616976         0.738921        -1.124121
 C        -2.051651         2.239312        -1.067066
 C        -1.626873         2.224851         0.417966
 H         0.876849         0.005353         0.532824
 H        -1.269442         0.269150         2.789264
 H        -0.726807         1.879893         2.666646
 H        -4.152766         0.662389         2.177348
 H        -2.387284        -0.839787         0.527345
 H        -2.209687         0.129243        -1.947988
 H        -3.792613         0.793373        -1.146543
 H        -1.132856         2.416809        -1.621902
 H        -2.822343         2.993664        -1.402448
 H        -1.119166         3.077858         0.985989
