19
Iteration:  2969
 O         0.522554         0.768282         0.319503
 C        -0.807303         0.956696         0.660588
 C        -1.188631         0.973212         2.083099
 C        -2.546243         1.312379         1.334950
 O        -3.860080         1.479009         1.802869
 C        -2.202268         0.227207         0.253284
 C        -2.628148         0.673170        -1.146331
 C        -2.265489         2.269445        -1.076608
 C        -1.593995         2.206967         0.345576
 H         0.714788         0.779985        -0.632053
 H        -1.145316         0.058381         2.665896
 H        -0.867139         1.909473         2.491216
 H        -3.864764         2.280896         2.412595
 H        -2.296389        -0.833415         0.522405
 H        -1.979534         0.270613        -1.923967
 H        -3.678296         0.539074        -1.472994
 H        -1.490134         2.554657        -1.709263
 H        -3.072380         2.983439        -1.018060
 H        -1.137719         3.234386         0.569375
