19
Iteration:  4289charge 0 multiplicity 1
 O         0.525388         0.709384         0.305814
 C        -0.814832         1.056676         0.578313
 C        -1.329677         1.202576         2.134142
 C        -2.571493         1.295277         1.313949
 O        -3.804735         1.526640         1.947175
 C        -2.108197         0.168382         0.325532
 C        -2.581337         0.565015        -1.194657
 C        -2.225111         2.043793        -1.094113
 C        -1.650018         2.291379         0.294537
 H         0.945475         1.133521        -0.584143
 H        -1.193031         0.296180         2.746356
 H        -0.950992         2.127231         2.589679
 H        -4.256990         2.314503         1.530583
 H        -2.203918        -0.854222         0.717655
 H        -1.902522        -0.063955        -1.885795
 H        -3.632691         0.431733        -1.472946
 H        -1.646200         2.563936        -1.880193
 H        -3.046163         2.690021        -1.379205
 H        -1.274397         3.269454         0.603945
