19
Iteration:  4184charge 0 multiplicity 1
 O         0.461020         0.846793         0.123532
 C        -0.814433         0.978385         0.644060
 C        -1.241194         1.076833         2.123048
 C        -2.544597         1.313173         1.338709
 O        -3.829956         1.559346         1.806103
 C        -2.149623         0.127481         0.345622
 C        -2.531021         0.610373        -1.123571
 C        -2.215195         2.179005        -1.065738
 C        -1.647406         2.238925         0.373391
 H         0.895375         0.113656         0.617172
 H        -1.195376         0.191070         2.798146
 H        -1.040125         1.936778         2.722249
 H        -4.362186         2.086744         1.129955
 H        -2.247863        -0.891903         0.760206
 H        -1.939004         0.103426        -1.835991
 H        -3.627449         0.427310        -1.281289
 H        -1.391683         2.394941        -1.704902
 H        -3.123016         2.774124        -1.174520
 H        -1.342829         3.250752         0.777117
