19
Iteration:  1359
 O         0.488802         0.713507         0.281143
 C        -0.781769         0.948693         0.692384
 C        -1.087974         1.003215         2.133121
 C        -2.521624         1.201158         1.300025
 O        -3.766325         1.610156         1.641221
 C        -2.208356         0.162031         0.232946
 C        -2.743636         0.757156        -1.054213
 C        -2.311494         2.243559        -1.006308
 C        -1.588001         2.226223         0.357439
 H         0.819782         1.661979         0.001537
 H        -0.846085         0.159944         2.781959
 H        -0.825810         1.953837         2.639629
 H        -4.234810         0.832114         2.027744
 H        -2.208705        -0.885574         0.404605
 H        -2.377809         0.389806        -2.096836
 H        -3.830548         0.620351        -1.208390
 H        -1.647007         2.645830        -1.839076
 H        -3.196438         2.959924        -0.884661
 H        -1.293500         3.145033         0.860255
