19
Iteration:  3093
 O         0.512809         0.671485         0.308930
 C        -0.821045         0.971312         0.678636
 C        -1.215636         0.950389         2.159796
 C        -2.462467         1.264231         1.305426
 O        -3.812369         1.567259         1.720544
 C        -2.145911         0.250074         0.149876
 C        -2.640385         0.788594        -1.130251
 C        -2.220347         2.219333        -1.012430
 C        -1.770302         2.313877         0.386699
 H         0.735833         1.029453        -0.574047
 H        -1.207181         0.026337         2.714245
 H        -0.761391         1.754726         2.763319
 H        -3.774758         1.043866         2.515553
 H        -2.158062        -0.831834         0.330552
 H        -2.235526         0.263153        -1.991462
 H        -3.726614         0.574200        -1.162277
 H        -1.408464         2.335670        -1.722034
 H        -3.021750         2.844965        -1.275051
 H        -1.337136         3.219475         0.789602
