19
Iteration:   470charge 0 multiplicity 1
 O         0.421412         0.716723         0.193023
 C        -0.834522         0.980037         0.639060
 C        -1.285397         0.963838         2.069882
 C        -2.518619         1.369567         1.228356
 O        -3.738807         1.459625         1.909152
 C        -2.250266         0.224712         0.230308
 C        -2.490902         0.695962        -1.219178
 C        -2.266083         2.265679        -0.974654
 C        -1.631644         2.280489         0.305766
 H         1.032394         0.413391         0.893650
 H        -1.342280         0.025086         2.540480
 H        -0.965201         1.757610         2.757310
 H        -3.468716         1.989837         2.769203
 H        -2.462903        -0.721200         0.635521
 H        -1.716726         0.261809        -1.851853
 H        -3.498871         0.568776        -1.597924
 H        -1.512949         2.684473        -1.718796
 H        -3.249790         2.761521        -0.965819
 H        -1.410940         3.241326         0.849495
