19
Iteration:  4194charge 0 multiplicity 1
 O         0.425100         0.869868         0.162239
 C        -0.834789         0.946435         0.686907
 C        -1.212120         1.135704         2.152877
 C        -2.487397         1.236549         1.309604
 O        -3.842784         1.555055         1.740816
 C        -2.125571         0.242453         0.304635
 C        -2.571929         0.603882        -1.132041
 C        -2.238517         2.131098        -0.985851
 C        -1.676358         2.181775         0.391959
 H         0.766045         0.012497         0.210756
 H        -1.119238         0.189446         2.761348
 H        -0.900982         2.052080         2.630435
 H        -3.903491         2.424493         1.275399
 H        -2.165795        -0.777231         0.728514
 H        -1.881847         0.215537        -1.838177
 H        -3.629681         0.263393        -1.386627
 H        -1.560219         2.290918        -1.780099
 H        -2.992697         2.864845        -1.299405
 H        -1.174195         3.104222         0.824850
