19
Iteration:  3782
 O         0.417846         0.821616         0.160495
 C        -0.798684         1.003614         0.734920
 C        -1.239851         0.901124         2.129933
 C        -2.498349         1.240080         1.249635
 O        -3.759534         1.572542         1.802591
 C        -2.179999         0.171717         0.215468
 C        -2.606902         0.753920        -1.190842
 C        -2.144904         2.238540        -1.026137
 C        -1.752864         2.258981         0.538525
 H         0.781651        -0.111865         0.009408
 H        -1.168792        -0.102622         2.668624
 H        -0.829316         1.676751         2.791898
 H        -4.184313         2.230770         1.123745
 H        -2.097376        -0.832616         0.609851
 H        -2.085956         0.126637        -1.944856
 H        -3.657316         0.533401        -1.350397
 H        -1.232279         2.450400        -1.590016
 H        -2.979287         2.951484        -1.307251
 H        -1.423247         3.132774         1.075734
