19
Iteration:   845
 O         0.537041         0.778637         0.042454
 C        -0.826580         0.893309         0.648860
 C        -1.259557         0.851406         2.166925
 C        -2.493914         1.397162         1.395781
 O        -3.869038         1.539641         1.841182
 C        -2.204950         0.302655         0.279055
 C        -2.572752         0.744945        -1.187869
 C        -2.210691         2.282474        -1.000308
 C        -1.648813         2.288470         0.399703
 H         1.188386         0.256079         0.393323
 H        -1.453561        -0.101869         2.768779
 H        -0.766646         1.520440         2.857480
 H        -4.290166         0.616631         1.700461
 H        -2.358536        -0.817511         0.522166
 H        -2.061250         0.179807        -2.025242
 H        -3.716832         0.525025        -1.343157
 H        -1.529725         2.644742        -1.777114
 H        -3.063147         2.915831        -0.963326
 H        -1.029773         3.227263         0.611026
