19
Iteration:  3709
 O         0.454824         0.614332         0.169800
 C        -0.834987         0.982588         0.680470
 C        -1.137529         0.969356         2.077420
 C        -2.627751         1.240053         1.336034
 O        -3.856359         1.591264         1.841391
 C        -2.035835         0.202413         0.228162
 C        -2.540321         0.800058        -1.214660
 C        -2.225058         2.321119        -0.988089
 C        -1.754116         2.316260         0.409750
 H         1.058497         0.170936         0.859759
 H        -0.988760         0.043038         2.574332
 H        -0.670649         1.795357         2.698113
 H        -4.556802         1.191268         1.307157
 H        -2.130674        -0.849223         0.518057
 H        -1.970832         0.350509        -2.032243
 H        -3.548715         0.444607        -1.455986
 H        -1.386388         2.627790        -1.673069
 H        -2.997675         3.023815        -1.080346
 H        -1.520200         3.105856         1.066067
