19
Iteration:  2443
 O         0.503135         0.749291         0.119803
 C        -0.784244         1.039070         0.710325
 C        -1.247664         0.936378         2.235097
 C        -2.506473         1.277607         1.341242
 O        -3.845546         1.622022         1.779117
 C        -2.064750         0.293009         0.196485
 C        -2.608319         0.687776        -1.135782
 C        -2.262696         2.251498        -1.080919
 C        -1.665920         2.274581         0.425601
 H         0.342726        -0.317230         0.074060
 H        -1.347682        -0.099184         2.362255
 H        -0.977342         1.591390         3.018987
 H        -4.276995         0.861393         2.353051
 H        -2.091522        -0.786429         0.518600
 H        -1.971018         0.146476        -1.926404
 H        -3.721523         0.396603        -1.400476
 H        -1.496637         2.207556        -1.840761
 H        -3.092263         2.897435        -1.463855
 H        -1.203525         3.232542         0.926651
