19
Iteration:  4164
 O         0.476440         0.765695         0.119716
 C        -0.823731         1.002116         0.715644
 C        -1.330181         1.014618         2.188522
 C        -2.524730         1.350815         1.273574
 O        -3.795411         1.602436         1.931531
 C        -2.090984         0.308286         0.233023
 C        -2.537610         0.616656        -1.146301
 C        -2.179249         2.103191        -1.120319
 C        -1.737310         2.279696         0.323730
 H         1.175351         0.587219         0.895988
 H        -1.484892         0.008919         2.574408
 H        -0.832891         1.647070         2.899210
 H        -4.412594         0.994148         1.425967
 H        -2.138101        -0.722317         0.593022
 H        -1.947935         0.060369        -1.811478
 H        -3.610695         0.451693        -1.149034
 H        -1.463848         2.290662        -1.932995
 H        -3.121812         2.615448        -1.288137
 H        -1.372718         3.255251         0.668515
