19
Iteration:  2829charge 0 multiplicity 1
 O         0.451809         0.606177         0.246949
 C        -0.828050         1.007640         0.609500
 C        -1.196907         1.016464         2.135558
 C        -2.552853         1.331111         1.290266
 O        -3.777354         1.578455         1.761747
 C        -2.039402         0.263330         0.305268
 C        -2.473189         0.709299        -1.138002
 C        -2.316225         2.262998        -1.018362
 C        -1.799092         2.295129         0.384548
 H         0.544800         0.222999        -0.594852
 H        -1.031295        -0.027660         2.442833
 H        -0.824622         1.811929         2.797325
 H        -4.380351         0.992057         2.348664
 H        -1.988753        -0.795832         0.650918
 H        -1.805386         0.228241        -1.838718
 H        -3.523749         0.384402        -1.240371
 H        -1.515169         2.723580        -1.707426
 H        -3.252474         2.736251        -1.256641
 H        -1.544148         3.315791         0.746786
