19
Iteration:   422
 O         0.455970         0.574008         0.100578
 C        -0.777361         0.999376         0.627194
 C        -1.215299         1.000776         2.075060
 C        -2.516736         1.276533         1.280965
 O        -3.887274         1.552891         1.666290
 C        -2.055768         0.200989         0.212400
 C        -2.574832         0.735147        -1.079529
 C        -2.246997         2.246408        -0.916725
 C        -1.741339         2.330335         0.532606
 H         1.202206         1.247859         0.405276
 H        -1.138016        -0.021471         2.655402
 H        -0.781120         1.747261         2.785570
 H        -3.779100         2.196314         2.447150
 H        -2.039897        -0.923486         0.497909
 H        -2.077836         0.268545        -1.960590
 H        -3.700034         0.463789        -1.080467
 H        -1.596323         2.544288        -1.697784
 H        -3.196450         2.758812        -0.875377
 H        -1.457981         3.375045         1.065397
