19
Iteration:  2350charge 0 multiplicity 1
 O         0.507202         0.864499         0.204210
 C        -0.799740         0.956046         0.659441
 C        -1.261651         0.828705         2.189394
 C        -2.509897         1.337647         1.385484
 O        -3.806090         1.733240         1.746870
 C        -2.079183         0.170363         0.166130
 C        -2.647706         0.694247        -1.153988
 C        -2.325511         2.179620        -1.011925
 C        -1.614173         2.229653         0.356410
 H         0.943169         0.092683         0.395278
 H        -1.418518        -0.230824         2.434316
 H        -0.741933         1.500743         2.891097
 H        -4.312654         1.077276         2.313040
 H        -2.206557        -0.894271         0.419243
 H        -1.981969         0.352773        -1.924696
 H        -3.621429         0.355239        -1.458377
 H        -1.597931         2.633199        -1.750751
 H        -3.198490         2.809127        -0.951688
 H        -1.224996         3.173599         0.631421
