19
Iteration:  1243charge 0 multiplicity 1
 O         0.447873         0.725260         0.142514
 C        -0.794331         1.051786         0.673874
 C        -1.270112         0.873371         2.197865
 C        -2.461954         1.315587         1.339787
 O        -3.723422         1.571323         1.695688
 C        -2.103953         0.301419         0.212897
 C        -2.665468         0.754005        -1.107129
 C        -2.269166         2.212442        -1.023170
 C        -1.697338         2.329506         0.407515
 H         0.809724        -0.153588         0.573976
 H        -1.263128        -0.270214         2.483665
 H        -0.794863         1.626115         2.988993
 H        -4.113875         0.811202         2.201663
 H        -2.237954        -0.781054         0.563706
 H        -2.135874         0.275363        -1.926792
 H        -3.697250         0.346496        -1.257270
 H        -1.486238         2.377645        -1.712544
 H        -3.080508         2.866769        -1.253538
 H        -1.440321         3.286210         0.809795
