19
Iteration:   639
 O         0.368519         0.784468         0.097305
 C        -0.871582         0.889122         0.688292
 C        -1.222013         0.890666         2.169790
 C        -2.522610         1.332852         1.285681
 O        -3.744628         1.511223         1.849794
 C        -2.174380         0.247792         0.177012
 C        -2.444755         0.731052        -1.210352
 C        -2.232488         2.261055        -1.007113
 C        -1.738195         2.311542         0.398366
 H         0.914862         0.159148         0.568128
 H        -1.429098        -0.037629         2.782024
 H        -0.702405         1.609157         2.833974
 H        -3.564971         2.133643         2.682101
 H        -2.319060        -0.825989         0.626279
 H        -1.826931         0.191870        -1.969942
 H        -3.533458         0.499711        -1.399532
 H        -1.466184         2.735097        -1.718705
 H        -3.253948         2.860338        -1.133158
 H        -1.333733         3.147584         0.854653
