19
Iteration:  1109
 O         0.454902         0.717301         0.107434
 C        -0.825790         0.963946         0.699082
 C        -1.269831         0.959818         2.179768
 C        -2.580938         1.297770         1.352359
 O        -3.830802         1.637014         1.894746
 C        -2.124496         0.156768         0.147528
 C        -2.476008         0.741253        -1.273854
 C        -2.199511         2.309056        -0.986746
 C        -1.650456         2.254519         0.437046
 H         0.243158        -0.205625        -0.350177
 H        -1.120923        -0.084414         2.682254
 H        -0.958124         1.834318         2.673433
 H        -4.046149         1.105928         2.701467
 H        -2.180430        -0.977996         0.362267
 H        -1.828262         0.320871        -2.024674
 H        -3.489549         0.473973        -1.577545
 H        -1.524471         2.769970        -1.651906
 H        -3.072387         2.882378        -1.131932
 H        -1.482369         3.196000         0.930752
