19
Iteration:  2347
 O         0.523092         0.868732         0.207101
 C        -0.785263         0.968333         0.653740
 C        -1.253209         0.846982         2.196165
 C        -2.492564         1.322987         1.382805
 O        -3.815217         1.735691         1.743610
 C        -2.105312         0.186551         0.193674
 C        -2.649619         0.679842        -1.193705
 C        -2.335458         2.199450        -1.024802
 C        -1.613319         2.190135         0.385650
 H         0.928257        -0.022674         0.390869
 H        -1.464424        -0.250329         2.484554
 H        -0.749952         1.511137         2.934960
 H        -4.237326         1.143103         2.298223
 H        -2.219457        -0.915236         0.325429
 H        -1.949188         0.298334        -1.995411
 H        -3.633284         0.389682        -1.453589
 H        -1.686833         2.649615        -1.788632
 H        -3.275904         2.794774        -0.893881
 H        -1.217671         3.188893         0.671487
