19
Iteration:  2345
 O         0.533170         0.871984         0.207470
 C        -0.778771         0.969650         0.651465
 C        -1.251432         0.854711         2.196110
 C        -2.483059         1.312861         1.375391
 O        -3.813694         1.742490         1.736196
 C        -2.124043         0.196766         0.210941
 C        -2.637135         0.673390        -1.215242
 C        -2.341832         2.211785        -1.027785
 C        -1.617662         2.171386         0.403038
 H         0.907541        -0.096926         0.395609
 H        -1.452739        -0.201321         2.527202
 H        -0.771398         1.501205         2.949257
 H        -4.235003         1.088328         2.363846
 H        -2.219776        -0.909534         0.293110
 H        -1.953156         0.261870        -2.022416
 H        -3.704061         0.400860        -1.451558
 H        -1.752874         2.651851        -1.814780
 H        -3.301276         2.782786        -0.871500
 H        -1.216858         3.193100         0.712403
