19
Iteration:  2063
 O         0.431972         0.887726         0.121783
 C        -0.850659         0.946385         0.708465
 C        -1.241155         0.907657         2.090250
 C        -2.571201         1.274906         1.258586
 O        -3.805713         1.621756         1.849360
 C        -2.126030         0.207527         0.235722
 C        -2.608135         0.682116        -1.093386
 C        -2.108276         2.171554        -1.077308
 C        -1.640070         2.316978         0.404488
 H         0.870993         0.125364         0.268948
 H        -1.317705        -0.014493         2.686112
 H        -0.759454         1.611549         2.750121
 H        -4.365394         0.957235         2.153021
 H        -2.277453        -0.798326         0.634067
 H        -2.131584         0.026168        -1.924198
 H        -3.768640         0.621504        -1.094694
 H        -1.241476         2.259950        -1.769811
 H        -2.960793         2.914271        -1.210845
 H        -1.321898         3.246477         0.951868
