19
Iteration:  2424charge 0 multiplicity 1
 O         0.388705         0.762142         0.135133
 C        -0.819662         1.002283         0.666345
 C        -1.319478         0.960923         2.128718
 C        -2.526974         1.359185         1.293010
 O        -3.738300         1.503248         1.780366
 C        -2.148156         0.262391         0.298445
 C        -2.594663         0.731811        -1.089107
 C        -2.063652         2.197332        -1.037705
 C        -1.709918         2.324870         0.382916
 H         0.734135        -0.209729         0.276178
 H        -1.243630        -0.098749         2.615255
 H        -0.826720         1.804011         2.685389
 H        -3.965404         0.553310         2.217327
 H        -2.245782        -0.792707         0.594528
 H        -2.300269         0.050451        -1.987669
 H        -3.684710         0.722057        -1.190344
 H        -1.324845         2.553580        -1.792530
 H        -2.900739         2.920821        -1.169536
 H        -1.458091         3.368973         0.699307
