19
Iteration:   796charge 0 multiplicity 1
 O         0.489717         0.735662         0.012202
 C        -0.809620         0.996103         0.643177
 C        -1.250125         0.891727         2.208599
 C        -2.542785         1.283786         1.346362
 O        -3.876918         1.729598         1.885244
 C        -2.043081         0.200628         0.180875
 C        -2.487663         0.728038        -1.247058
 C        -2.258959         2.272320        -1.003663
 C        -1.743813         2.216569         0.542212
 H         0.601983        -0.276598        -0.299746
 H        -1.227517        -0.105671         2.672243
 H        -0.702391         1.683797         2.894056
 H        -4.337812         0.907720         1.981823
 H        -2.192765        -0.800236         0.402760
 H        -1.779520         0.339416        -1.948756
 H        -3.438604         0.341141        -1.415491
 H        -1.393991         2.632956        -1.573462
 H        -3.202707         2.920679        -1.042407
 H        -1.499384         3.030741         1.231218
