19
Iteration:  3545
 O         0.376484         0.681236         0.037002
 C        -0.841493         1.014591         0.762497
 C        -1.362404         0.858239         2.185233
 C        -2.489834         1.251922         1.338145
 O        -3.789130         1.645529         1.786175
 C        -1.981447         0.187841         0.183205
 C        -2.509928         0.752843        -1.166606
 C        -2.232618         2.224662        -0.963667
 C        -1.665585         2.272240         0.512780
 H         0.909657         1.497145         0.058566
 H        -1.223971        -0.108996         2.633639
 H        -1.061060         1.753471         2.753292
 H        -4.361176         2.073976         1.124918
 H        -2.001823        -0.929099         0.355779
 H        -2.139892         0.178671        -2.040432
 H        -3.556367         0.422952        -1.237566
 H        -1.386903         2.402106        -1.700470
 H        -3.108404         2.773738        -1.174449
 H        -1.467318         3.128092         1.150064
