19
Iteration:  2553charge 0 multiplicity 1
 O         0.491411         0.683956         0.226905
 C        -0.787136         0.894403         0.708511
 C        -1.174936         1.076255         2.143616
 C        -2.556585         1.337153         1.309588
 O        -3.869080         1.517222         1.829858
 C        -2.174139         0.248698         0.251635
 C        -2.630898         0.713596        -1.180375
 C        -2.135906         2.281694        -1.102133
 C        -1.648454         2.194053         0.371917
 H         0.466826         1.259181        -0.527912
 H        -1.044240         0.313306         2.870994
 H        -0.825052         2.018490         2.565880
 H        -4.023359         0.701182         2.162989
 H        -2.449931        -0.798108         0.567345
 H        -2.203212         0.130609        -1.971922
 H        -3.762437         0.701637        -1.132950
 H        -1.416468         2.569687        -1.896327
 H        -3.056291         2.891386        -1.140350
 H        -1.343406         3.211412         0.874466
