19
Iteration:  2510
 O         0.550937         0.687308         0.222184
 C        -0.790419         0.979796         0.685328
 C        -1.249236         0.929917         2.095216
 C        -2.540768         1.364424         1.266994
 O        -3.832142         1.715319         1.782888
 C        -2.063998         0.215545         0.230355
 C        -2.512791         0.642324        -1.140881
 C        -2.339701         2.193877        -1.001395
 C        -1.725997         2.298742         0.461332
 H         0.617532         0.543314        -0.675276
 H        -1.298800        -0.117545         2.261783
 H        -0.773150         1.536195         2.843415
 H        -4.211226         0.978597         2.222498
 H        -2.282015        -0.858394         0.429966
 H        -1.920001         0.203584        -2.038188
 H        -3.620859         0.360579        -1.226808
 H        -1.701653         2.682754        -1.752084
 H        -3.346558         2.645691        -0.909407
 H        -1.283394         3.270900         0.914445
