19
Iteration:  4925charge 0 multiplicity 1
 O         0.547735         0.766325         0.260204
 C        -0.816071         1.012378         0.691064
 C        -1.192366         1.196651         2.156803
 C        -2.586784         1.375830         1.228155
 O        -3.894760         1.654946         1.807265
 C        -2.111169         0.214357         0.306683
 C        -2.473176         0.487507        -1.117689
 C        -2.256179         2.065324        -1.095342
 C        -1.755581         2.273376         0.318960
 H         0.334530         0.146041        -0.589224
 H        -1.160043         0.285030         2.744781
 H        -0.733521         2.109925         2.700332
 H        -3.915874         1.025513         2.571448
 H        -2.032384        -0.790286         0.735464
 H        -1.970624        -0.223188        -1.811245
 H        -3.476540         0.292619        -1.401237
 H        -1.437770         2.456569        -1.831668
 H        -3.292170         2.441217        -1.436308
 H        -1.467293         3.196802         0.688257
