19
Iteration:  4800
 O         0.486993         0.808361         0.231659
 C        -0.794467         1.063805         0.665098
 C        -1.259961         1.189702         2.164259
 C        -2.480978         1.377507         1.299973
 O        -3.852626         1.578162         1.869563
 C        -2.167347         0.242036         0.363512
 C        -2.509885         0.515111        -1.061150
 C        -2.245513         2.031748        -1.210933
 C        -1.670254         2.263037         0.229488
 H         0.918454        -0.106317         0.562743
 H        -1.168820         0.128361         2.561388
 H        -0.807630         2.016610         2.720421
 H        -4.462188         0.818002         1.659034
 H        -2.370307        -0.818531         0.483959
 H        -1.989275        -0.158283        -1.731577
 H        -3.598635         0.404394        -1.051152
 H        -1.580698         2.488527        -1.958883
 H        -3.167312         2.751541        -1.465355
 H        -1.379689         3.282053         0.511668
