19
Iteration:  2507
 O         0.554759         0.708341         0.224649
 C        -0.768057         0.972859         0.678426
 C        -1.244017         0.928910         2.130508
 C        -2.547990         1.343766         1.296015
 O        -3.833368         1.728083         1.772924
 C        -2.084574         0.200233         0.227880
 C        -2.497809         0.666419        -1.168867
 C        -2.347564         2.190278        -0.991186
 C        -1.722056         2.286516         0.431032
 H         0.606126         0.475860        -0.750899
 H        -1.301141        -0.128918         2.370940
 H        -0.747329         1.478945         2.939537
 H        -4.213874         0.983870         2.239161
 H        -2.302821        -0.881761         0.422372
 H        -1.965583         0.238714        -1.943628
 H        -3.615678         0.503506        -1.261132
 H        -1.791297         2.629484        -1.815008
 H        -3.401228         2.579431        -0.923440
 H        -1.257730         3.254805         0.829729
