19
Iteration:  3203
 O         0.495198         0.697775         0.293875
 C        -0.859146         0.911975         0.630722
 C        -1.325345         0.965867         2.147234
 C        -2.470969         1.356752         1.311467
 O        -3.765746         1.390665         1.879424
 C        -2.218048         0.234538         0.234861
 C        -2.510633         0.792232        -1.166186
 C        -2.198928         2.297398        -1.049826
 C        -1.625597         2.302141         0.364509
 H         0.540290         0.339403        -0.577496
 H        -1.145815         0.068631         2.726390
 H        -0.909475         1.896876         2.545528
 H        -4.450249         2.099258         1.518007
 H        -2.518285        -0.793957         0.458227
 H        -1.889182         0.418844        -2.005176
 H        -3.564602         0.661453        -1.460251
 H        -1.757422         2.657602        -1.970853
 H        -3.186372         2.754778        -1.016972
 H        -1.277905         3.314467         0.662184
