19
Iteration:  3361
 O         0.494689         0.737286         0.206592
 C        -0.856316         0.924807         0.653162
 C        -1.232896         0.855772         2.118015
 C        -2.570347         1.404433         1.369912
 O        -3.781612         1.545838         1.834369
 C        -2.204062         0.268661         0.207035
 C        -2.500881         0.715733        -1.159429
 C        -2.221163         2.224030        -0.964285
 C        -1.673037         2.198718         0.385551
 H         0.705493         1.556558        -0.156066
 H        -1.189494        -0.025253         2.779998
 H        -0.695645         1.709968         2.661714
 H        -4.436390         1.831192         1.193362
 H        -2.452737        -0.800233         0.384047
 H        -1.712795         0.250409        -1.772737
 H        -3.526088         0.437451        -1.510005
 H        -1.601630         2.646395        -1.813487
 H        -3.173317         2.777930        -1.117164
 H        -1.220270         3.145098         0.695955
