19
Iteration:  3236
 O         0.524380         0.681068         0.230607
 C        -0.820597         1.024617         0.605767
 C        -1.300028         0.839456         2.175291
 C        -2.524279         1.271812         1.359732
 O        -3.803943         1.611102         1.845942
 C        -2.006474         0.208717         0.138902
 C        -2.574504         0.747839        -1.134674
 C        -2.204233         2.235072        -1.050195
 C        -1.780536         2.361915         0.478396
 H         0.293205         0.203759        -0.555108
 H        -1.113308        -0.127131         2.703650
 H        -0.954609         1.654926         2.818547
 H        -4.301764         1.470323         0.990803
 H        -2.037206        -0.839303         0.509992
 H        -2.240445         0.396315        -2.135715
 H        -3.662658         0.610331        -1.196773
 H        -1.357201         2.529963        -1.702202
 H        -3.017755         2.948157        -1.138762
 H        -1.600538         3.379462         0.924083
