19
Iteration:  1752charge 0 multiplicity 1
 O         0.365188         0.808156         0.068666
 C        -0.866186         0.988729         0.714989
 C        -1.181736         0.975923         2.225737
 C        -2.577066         1.246713         1.296351
 O        -3.855594         1.636169         1.884082
 C        -2.155589         0.220886         0.224362
 C        -2.455758         0.695380        -1.159916
 C        -2.110996         2.169241        -1.104047
 C        -1.676197         2.278710         0.360722
 H         0.626903        -0.081494         0.014665
 H        -1.020973         0.160629         2.846010
 H        -0.828553         1.902904         2.628346
 H        -4.026653         1.020666         2.502730
 H        -2.232762        -0.845129         0.591510
 H        -1.912683         0.056537        -1.885185
 H        -3.496211         0.471522        -1.330372
 H        -1.526976         2.588823        -1.853026
 H        -3.069813         2.682071        -1.138680
 H        -1.387556         3.211660         0.986679
