19
Iteration:  1994charge 0 multiplicity 1
 O         0.467942         0.748369         0.197391
 C        -0.769059         0.927295         0.640267
 C        -1.220149         1.025677         2.208499
 C        -2.430072         1.233576         1.384111
 O        -3.784645         1.656386         1.649438
 C        -2.096427         0.176878         0.213250
 C        -2.639698         0.700395        -1.177806
 C        -2.372776         2.288346        -0.956634
 C        -1.675969         2.258855         0.407777
 H         0.776704        -0.210616         0.393691
 H        -1.096222         0.138211         2.898041
 H        -0.738146         1.914487         2.735756
 H        -4.282284         0.992914         2.119936
 H        -2.119882        -0.906701         0.389766
 H        -1.923868         0.451246        -1.968501
 H        -3.627141         0.340828        -1.437661
 H        -1.750003         2.575869        -1.774633
 H        -3.349421         2.821301        -1.025918
 H        -1.369955         3.256432         0.791809
