19
Iteration:  3542
 O         0.379023         0.697056         0.026800
 C        -0.802802         1.018329         0.720396
 C        -1.376169         0.834735         2.202569
 C        -2.475976         1.234363         1.315891
 O        -3.808992         1.665376         1.800170
 C        -2.016687         0.200359         0.192441
 C        -2.496535         0.747645        -1.159026
 C        -2.212219         2.206485        -0.951053
 C        -1.660492         2.263601         0.498101
 H         0.954060         1.550313         0.138437
 H        -1.262334        -0.182769         2.690678
 H        -1.136276         1.714521         2.748823
 H        -4.419996         2.104096         1.060234
 H        -1.976344        -0.884569         0.411562
 H        -2.071702         0.145658        -2.029346
 H        -3.586712         0.401391        -1.085031
 H        -1.467903         2.472784        -1.708890
 H        -3.140955         2.812992        -1.097525
 H        -1.519677         3.168600         1.118694
