19
Iteration:  3434
 O         0.409838         0.684721         0.182258
 C        -0.883953         1.009324         0.594302
 C        -1.241988         0.979871         2.126519
 C        -2.493273         1.238287         1.341837
 O        -3.802795         1.444332         1.855707
 C        -2.190524         0.293725         0.268210
 C        -2.607410         0.811546        -1.132449
 C        -2.178293         2.257629        -1.022207
 C        -1.595492         2.305479         0.330365
 H         0.936919         0.918873         0.941925
 H        -1.158118         0.030995         2.716152
 H        -0.712462         1.781308         2.614301
 H        -4.372854         1.203935         1.018686
 H        -2.373571        -0.746371         0.619057
 H        -1.829780         0.158153        -1.575232
 H        -3.549914         0.386227        -1.385683
 H        -1.390468         2.433587        -1.786192
 H        -2.932239         3.000022        -1.229123
 H        -1.044822         3.189400         0.691212
