19
Iteration:  3290
 O         0.540473         0.739291         0.252870
 C        -0.809880         0.887307         0.667286
 C        -1.184926         0.926902         2.157062
 C        -2.543227         1.361416         1.290421
 O        -3.827470         1.502566         1.845553
 C        -2.233591         0.271723         0.238134
 C        -2.546455         0.760762        -1.141109
 C        -2.209694         2.262555        -1.060184
 C        -1.695857         2.245750         0.402358
 H         0.387162         0.723051        -0.665907
 H        -1.163000        -0.064175         2.619892
 H        -0.690984         1.640609         2.811553
 H        -4.472462         1.431780         1.075023
 H        -2.357914        -0.803226         0.465388
 H        -2.017329         0.215077        -1.946415
 H        -3.636830         0.658605        -1.270893
 H        -1.433333         2.693785        -1.698322
 H        -3.026705         3.012669        -1.120782
 H        -1.308215         3.195676         0.831176
