19
Iteration:  2573
 O         0.523258         0.745537         0.196993
 C        -0.854873         0.980435         0.548467
 C        -1.294256         1.045302         2.113804
 C        -2.522931         1.342191         1.336661
 O        -3.823704         1.546024         1.783814
 C        -2.181340         0.173084         0.252852
 C        -2.655201         0.737917        -1.051920
 C        -2.128584         2.133857        -1.006012
 C        -1.633278         2.290646         0.400708
 H         0.579361         1.156484        -0.650063
 H        -1.362605         0.076633         2.647242
 H        -0.837576         1.753360         2.821193
 H        -4.111846         0.725030         2.190290
 H        -2.274209        -0.906352         0.560038
 H        -2.113440         0.310545        -1.785793
 H        -3.764721         0.551650        -1.176181
 H        -1.198191         2.257448        -1.572369
 H        -2.812963         2.956400        -1.377671
 H        -1.051887         3.188411         0.827282
