19
Iteration:  3392charge 0 multiplicity 1
 O         0.435197         0.706736         0.056498
 C        -0.793975         0.968653         0.671175
 C        -1.426272         0.872879         2.230669
 C        -2.539393         1.274907         1.341877
 O        -3.731148         1.678759         1.778075
 C        -1.983406         0.196205         0.174889
 C        -2.545637         0.681670        -1.067815
 C        -2.218342         2.219938        -0.973214
 C        -1.735107         2.257369         0.480858
 H         0.870133         1.604199        -0.218231
 H        -1.378827        -0.134372         2.716208
 H        -1.025946         1.675761         2.912097
 H        -4.544157         1.519183         1.189506
 H        -1.916008        -0.926889         0.236602
 H        -1.989378         0.408198        -1.996871
 H        -3.630655         0.521795        -1.149097
 H        -1.336640         2.485742        -1.666081
 H        -2.992153         2.948075        -1.229509
 H        -1.413393         3.239120         0.866193
