19
Iteration:   352charge 0 multiplicity 1
 O         0.443403         0.683957         0.193692
 C        -0.820896         1.050228         0.710942
 C        -1.169278         0.913543         2.185261
 C        -2.508868         1.222660         1.314451
 O        -3.803487         1.518023         1.869645
 C        -2.160756         0.172173         0.201576
 C        -2.619296         0.768215        -1.185630
 C        -2.140401         2.224258        -1.112192
 C        -1.772313         2.292487         0.433628
 H         0.633931         1.522164        -0.402453
 H        -1.315153        -0.054521         2.682211
 H        -0.793954         1.643599         2.963888
 H        -3.885130         2.584081         1.944086
 H        -2.158992        -0.919435         0.243651
 H        -2.067263         0.263937        -2.032664
 H        -3.652705         0.791875        -1.495525
 H        -1.210790         2.373387        -1.666083
 H        -2.986137         2.850772        -1.454014
 H        -1.502497         3.149087         0.945225
