19
Iteration:    61
 O         0.476339         0.860512         0.126112
 C        -0.871070         0.950177         0.582284
 C        -1.374175         0.880695         2.119951
 C        -2.519710         1.342421         1.308902
 O        -3.802932         1.383488         1.836333
 C        -2.232397         0.257764         0.202364
 C        -2.594321         0.753989        -1.104984
 C        -2.138664         2.279158        -0.933024
 C        -1.516099         2.269301         0.420238
 H         0.921225         0.042367         0.397880
 H        -1.535306        -0.180576         2.459467
 H        -0.962607         1.602364         2.857508
 H        -4.074634         2.260118         1.835395
 H        -2.281032        -0.849048         0.541999
 H        -2.038694         0.248933        -1.919325
 H        -3.642927         0.602578        -1.450371
 H        -1.339280         2.484947        -1.801020
 H        -2.913655         3.104773        -1.014230
 H        -0.952437         3.149738         0.854165
