19
Iteration:   270
 O         0.501222         0.723303         0.176135
 C        -0.819164         0.986997         0.662797
 C        -1.293837         0.946268         2.133550
 C        -2.524158         1.227018         1.270691
 O        -3.806487         1.585507         1.665418
 C        -2.001872         0.182146         0.177934
 C        -2.589038         0.722931        -1.037286
 C        -2.306507         2.280015        -0.884529
 C        -1.675812         2.299856         0.397838
 H         0.356649        -0.120842        -0.285378
 H        -1.333642        -0.011155         2.702858
 H        -1.024343         1.835959         2.660783
 H        -3.620654         2.058556         2.559131
 H        -1.923424        -0.937112         0.333230
 H        -2.054789         0.490445        -1.955907
 H        -3.641460         0.373917        -1.134146
 H        -1.662813         2.615685        -1.794696
 H        -3.148397         3.008563        -1.014741
 H        -1.534561         3.175311         1.116669
