19
Iteration:  2887charge 0 multiplicity 1
 O         0.500825         0.871743         0.199631
 C        -0.829567         0.892342         0.615721
 C        -1.215598         0.988081         2.207192
 C        -2.539395         1.342156         1.301107
 O        -3.771387         1.664128         1.757794
 C        -2.212277         0.131911         0.245299
 C        -2.597797         0.652720        -1.085068
 C        -2.260932         2.172810        -1.016467
 C        -1.647168         2.245767         0.434256
 H         0.711417         0.599608        -0.757056
 H        -1.226906         0.003658         2.696032
 H        -0.652974         1.591506         2.930990
 H        -4.415733         1.021042         1.764408
 H        -2.266771        -0.937901         0.540467
 H        -1.841370         0.384786        -1.884803
 H        -3.522443         0.372646        -1.554461
 H        -1.434915         2.339965        -1.778686
 H        -3.023271         2.968152        -1.267488
 H        -1.364949         3.156560         0.884979
