19
Iteration:   407
 O         0.431532         0.633957         0.096990
 C        -0.789964         1.040676         0.674949
 C        -1.251125         0.917640         2.232262
 C        -2.479037         1.218962         1.360000
 O        -3.780769         1.504131         1.618571
 C        -2.107250         0.258223         0.291679
 C        -2.632285         0.750700        -1.089473
 C        -2.287962         2.281693        -0.973844
 C        -1.665373         2.230578         0.415689
 H         0.939803         1.516813         0.045063
 H        -1.131769        -0.067245         2.717205
 H        -0.960581         1.865574         2.729229
 H        -3.881416         2.435317         2.137571
 H        -2.189766        -0.858305         0.444135
 H        -2.059349         0.281194        -1.922147
 H        -3.702178         0.658266        -1.223467
 H        -1.426346         2.579360        -1.620997
 H        -3.061784         3.042845        -1.253984
 H        -1.385005         3.110991         0.867868
