19
Iteration:  3658charge 0 multiplicity 1
 O         0.381558         0.791180         0.028681
 C        -0.831339         0.908086         0.686209
 C        -1.234902         0.860241         2.220712
 C        -2.546742         1.327967         1.311767
 O        -3.808855         1.599110         1.767443
 C        -2.150913         0.205429         0.237142
 C        -2.512411         0.721689        -1.114175
 C        -2.181331         2.263863        -0.964293
 C        -1.591594         2.272284         0.421277
 H         1.111530         0.826753         0.757413
 H        -1.488267        -0.054538         2.752188
 H        -0.940810         1.682556         2.902511
 H        -4.482605         1.171218         1.086563
 H        -2.448356        -0.833989         0.432546
 H        -1.990435         0.097007        -1.813576
 H        -3.581813         0.673829        -1.405109
 H        -1.484825         2.733583        -1.673315
 H        -3.140494         2.839942        -1.053081
 H        -1.124654         3.080453         0.997558
