19
Iteration:   761
 O         0.428488         0.762789         0.287289
 C        -0.849964         0.964240         0.606300
 C        -1.259741         0.877003         2.142409
 C        -2.461955         1.305178         1.270940
 O        -3.693761         1.534904         1.753788
 C        -2.227671         0.249788         0.254113
 C        -2.555876         0.763093        -1.160926
 C        -2.269133         2.300379        -1.022810
 C        -1.647136         2.265390         0.425625
 H         0.432835         0.321396        -0.677175
 H        -1.270375        -0.134616         2.537756
 H        -0.818252         1.568648         2.872421
 H        -3.591689         1.197572         2.671775
 H        -2.426397        -0.826211         0.501277
 H        -1.990745         0.323196        -1.987324
 H        -3.571518         0.410565        -1.464624
 H        -1.782540         2.692256        -1.958996
 H        -3.170696         3.089825        -0.977290
 H        -1.304939         3.071789         0.949757
