19
Iteration:  1199charge 0 multiplicity 1
 O         0.488962         0.753122         0.137419
 C        -0.738957         0.893361         0.716783
 C        -1.215014         0.983260         2.189741
 C        -2.485504         1.221617         1.330644
 O        -3.727183         1.631319         1.616343
 C        -2.158839         0.183829         0.232891
 C        -2.789389         0.799220        -1.121305
 C        -2.288866         2.241860        -0.927446
 C        -1.612825         2.167130         0.416144
 H         1.098074         1.376599         0.703773
 H        -1.254646        -0.005969         2.754963
 H        -0.970791         1.993795         2.726379
 H        -4.307323         0.818169         1.888534
 H        -2.223261        -0.962017         0.297513
 H        -2.405163         0.414213        -2.045445
 H        -3.892366         0.861468        -1.342732
 H        -1.506848         2.467800        -1.592614
 H        -2.958721         3.065739        -0.984125
 H        -1.289164         3.105452         0.787369
