19
Iteration:  1825charge 0 multiplicity 1
 O         0.521280         0.802488         0.187484
 C        -0.826873         0.927972         0.658891
 C        -1.261298         0.921100         2.120622
 C        -2.452431         1.324470         1.306253
 O        -3.757231         1.691408         1.742626
 C        -2.135311         0.179816         0.244213
 C        -2.597051         0.669898        -1.083349
 C        -2.378605         2.222189        -1.011949
 C        -1.696479         2.282406         0.374567
 H         1.058370         0.020686         0.541284
 H        -1.315609        -0.073028         2.737499
 H        -0.756363         1.804946         2.722080
 H        -4.156497         0.849683         2.057113
 H        -2.210477        -0.935506         0.413666
 H        -1.892026         0.366596        -1.910403
 H        -3.607663         0.310106        -1.430903
 H        -1.605607         2.540459        -1.846199
 H        -3.265803         2.889062        -1.054903
 H        -1.295641         3.177088         0.884462
