19
Iteration:  3806
 O         0.394241         0.848296         0.020924
 C        -0.804171         0.967745         0.683089
 C        -1.363822         0.927558         2.226432
 C        -2.536918         1.187098         1.376029
 O        -3.862724         1.580319         1.762189
 C        -2.070681         0.140965         0.221479
 C        -2.549447         0.771835        -1.117645
 C        -2.103752         2.248691        -0.997155
 C        -1.650951         2.226931         0.504163
 H         0.789310        -0.003467        -0.305926
 H        -1.281921         0.014055         2.815975
 H        -0.808814         1.742523         2.733222
 H        -3.992714         2.441015         1.403240
 H        -2.079767        -0.871968         0.585223
 H        -2.112415         0.185559        -1.971509
 H        -3.601909         0.593635        -1.230190
 H        -1.279107         2.531406        -1.689778
 H        -2.965780         2.894096        -1.131016
 H        -1.220293         3.139030         0.816142
