19
Iteration:   721
 O         0.523095         0.594941         0.227370
 C        -0.790385         0.989324         0.653881
 C        -1.236642         0.940946         2.088679
 C        -2.541347         1.245202         1.276243
 O        -3.840403         1.451517         1.802366
 C        -2.087971         0.189693         0.180267
 C        -2.683326         0.806215        -1.065816
 C        -2.239372         2.340668        -1.031425
 C        -1.619317         2.312000         0.397098
 H         0.942056         1.263055        -0.245275
 H        -1.186723        -0.076754         2.509956
 H        -1.090399         1.840732         2.768911
 H        -3.889282         2.340581         2.238003
 H        -2.132264        -0.809063         0.457098
 H        -2.391293         0.390519        -2.035063
 H        -3.756069         0.779644        -0.941887
 H        -1.555313         2.514981        -1.824922
 H        -3.062816         2.992442        -1.097349
 H        -1.417494         3.286792         1.017415
