19
Iteration:   803charge 0 multiplicity 1
 O         0.455506         0.747348        -0.010923
 C        -0.831396         0.967941         0.679297
 C        -1.225914         0.919824         2.201601
 C        -2.535567         1.202831         1.364850
 O        -3.821493         1.719410         1.854932
 C        -2.055779         0.213437         0.185991
 C        -2.474041         0.729744        -1.191607
 C        -2.240344         2.303552        -0.979467
 C        -1.767253         2.212996         0.522709
 H         0.502731        -0.243513        -0.037071
 H        -1.176590        -0.023195         2.711386
 H        -0.807099         1.641112         2.803974
 H        -4.473527         1.083429         1.846292
 H        -2.115468        -0.936998         0.405009
 H        -1.835699         0.233519        -1.961348
 H        -3.520461         0.501009        -1.632421
 H        -1.412149         2.854895        -1.475423
 H        -3.158030         2.871396        -1.304770
 H        -1.581670         3.131409         1.049879
