19
Iteration:   238charge 0 multiplicity 1
 O         0.503114         0.809375         0.141850
 C        -0.861134         0.945418         0.693161
 C        -1.204469         0.901547         2.199718
 C        -2.483521         1.336101         1.346106
 O        -3.848468         1.439812         1.736939
 C        -2.167439         0.247000         0.235698
 C        -2.645061         0.750907        -1.157886
 C        -2.198500         2.253590        -1.006974
 C        -1.622702         2.288471         0.380057
 H         0.814437        -0.172409         0.067097
 H        -1.378958        -0.024688         2.794082
 H        -0.696649         1.657175         2.790210
 H        -4.111133         2.281058         2.212262
 H        -2.367631        -0.808250         0.430475
 H        -2.030150         0.327062        -1.951200
 H        -3.721535         0.534397        -1.312955
 H        -1.420184         2.529100        -1.835269
 H        -3.087737         2.951867        -1.052008
 H        -1.279985         3.233319         0.824807
