19
Iteration:  3331
 O         0.478382         0.581153         0.273432
 C        -0.818352         1.029213         0.709150
 C        -1.279580         0.967583         2.142925
 C        -2.596545         1.299199         1.257843
 O        -3.737085         1.467628         1.956431
 C        -2.120172         0.254715         0.203813
 C        -2.520955         0.742445        -1.228899
 C        -2.219072         2.321937        -1.051670
 C        -1.694804         2.268336         0.323867
 H         0.888424         1.261192        -0.382923
 H        -1.206003         0.061740         2.707797
 H        -1.018631         1.893696         2.705316
 H        -4.401279         1.946922         1.487285
 H        -2.306942        -0.798710         0.436527
 H        -1.953421         0.203448        -1.987321
 H        -3.563536         0.468452        -1.514268
 H        -1.592440         2.689961        -1.850316
 H        -3.247021         2.785245        -1.011522
 H        -1.459876         3.266519         0.770490
