19
Iteration:  2011
 O         0.530479         0.737422         0.183419
 C        -0.844252         0.988991         0.638261
 C        -1.172896         1.061111         2.110730
 C        -2.538685         1.309318         1.277009
 O        -3.846033         1.613204         1.633789
 C        -2.079372         0.162022         0.220976
 C        -2.595467         0.747596        -1.060733
 C        -2.305914         2.210539        -0.895796
 C        -1.648342         2.203359         0.405960
 H         0.701042        -0.175910         0.470426
 H        -0.966386         0.195512         2.754507
 H        -0.780014         1.894659         2.689776
 H        -4.230524         0.854416         1.959537
 H        -2.114471        -0.916808         0.496773
 H        -2.449636         0.147640        -1.966794
 H        -3.725860         0.606017        -1.096813
 H        -1.799387         2.903842        -1.649265
 H        -3.163799         2.862075        -0.759949
 H        -1.198452         3.004807         0.969035
