19
Iteration:   262charge 0 multiplicity 1
 O         0.521589         0.704373         0.143655
 C        -0.749787         1.052675         0.664910
 C        -1.324758         0.982782         2.156857
 C        -2.516895         1.153836         1.234446
 O        -3.827035         1.592305         1.686602
 C        -1.998869         0.184566         0.200050
 C        -2.620967         0.754375        -1.082245
 C        -2.297433         2.281141        -0.939844
 C        -1.696212         2.253484         0.475475
 H         0.528475        -0.202794        -0.279966
 H        -1.211262         0.027171         2.669734
 H        -1.163888         1.830495         2.877102
 H        -3.651917         2.182721         2.551723
 H        -2.142988        -0.831203         0.377894
 H        -2.097287         0.285909        -1.932864
 H        -3.673989         0.496902        -1.092362
 H        -1.532827         2.630261        -1.698204
 H        -3.225657         2.919678        -0.943836
 H        -1.478369         3.132688         0.973068
