19
Iteration:  3145charge 0 multiplicity 1
 O         0.448643         0.736725         0.201816
 C        -0.794606         1.000300         0.706184
 C        -1.264973         0.843622         2.146740
 C        -2.479181         1.309567         1.386638
 O        -3.816741         1.621239         1.669488
 C        -2.068175         0.207180         0.244979
 C        -2.584870         0.688997        -1.204394
 C        -2.238602         2.243749        -1.004259
 C        -1.739236         2.252073         0.471400
 H         0.579320         1.056213        -0.749226
 H        -1.314638        -0.174657         2.539700
 H        -0.770099         1.559413         2.813537
 H        -3.905177         1.998404         2.501826
 H        -2.141310        -0.812270         0.661647
 H        -1.948651         0.339170        -2.013304
 H        -3.641578         0.352182        -1.344919
 H        -1.502533         2.470701        -1.758766
 H        -3.094131         2.953705        -1.255088
 H        -1.336795         3.154776         1.006810
