19
Iteration:  3415charge 0 multiplicity 1
 O         0.452688         0.722739         0.078090
 C        -0.799455         0.960035         0.706170
 C        -1.225575         0.938362         2.149825
 C        -2.532905         1.331257         1.334373
 O        -3.848691         1.566699         1.800101
 C        -2.167246         0.190445         0.271415
 C        -2.580835         0.707906        -1.156873
 C        -2.165125         2.245971        -1.001885
 C        -1.621943         2.246765         0.443016
 H         1.051061         1.334398         0.436466
 H        -1.255495        -0.044166         2.664707
 H        -0.953496         1.742545         2.908870
 H        -4.509621         1.297074         1.123949
 H        -2.262604        -0.923333         0.505822
 H        -2.077348         0.234479        -2.045484
 H        -3.693894         0.785368        -1.266330
 H        -1.439146         2.582801        -1.814037
 H        -3.036137         2.896135        -1.161530
 H        -1.368254         3.183340         0.955331
