19
Iteration:  2440charge 0 multiplicity 1
 O         0.478489         0.741135         0.119343
 C        -0.801566         1.059636         0.716554
 C        -1.248533         0.937133         2.220640
 C        -2.477234         1.285922         1.310956
 O        -3.822275         1.592014         1.781350
 C        -2.092833         0.280670         0.204035
 C        -2.600448         0.695615        -1.125571
 C        -2.256061         2.241104        -1.091359
 C        -1.651916         2.301634         0.419233
 H         0.329888        -0.195091         0.153055
 H        -1.412732        -0.105588         2.431772
 H        -1.053750         1.588878         3.078580
 H        -4.214803         0.793368         2.333828
 H        -2.166751        -0.765742         0.540988
 H        -2.025764         0.230848        -1.843876
 H        -3.681425         0.491669        -1.307761
 H        -1.395457         2.149663        -1.761385
 H        -3.067695         2.855039        -1.493863
 H        -1.262189         3.195269         0.910214
