19
Iteration:  3347
 O         0.504827         0.681580         0.264630
 C        -0.883172         0.826190         0.607753
 C        -1.268114         1.016556         2.116431
 C        -2.421707         1.366705         1.326455
 O        -3.826718         1.472330         1.936041
 C        -2.210192         0.186312         0.222650
 C        -2.493839         0.731261        -1.211576
 C        -2.316840         2.260724        -1.082243
 C        -1.650950         2.341842         0.431656
 H         0.816459         1.528388        -0.215684
 H        -1.480163        -0.005183         2.543995
 H        -0.724553         1.701153         2.743798
 H        -4.308605         1.997884         1.166350
 H        -2.342221        -0.871518         0.547957
 H        -1.716617         0.389812        -1.957905
 H        -3.471837         0.485837        -1.628461
 H        -1.451877         2.615083        -1.702379
 H        -3.124833         2.933448        -1.200104
 H        -1.109061         3.167981         0.882244
