19
Iteration:  2934charge 0 multiplicity 1
 O         0.531828         0.694592         0.336319
 C        -0.769222         0.997613         0.660484
 C        -1.268606         0.988170         2.108483
 C        -2.496182         1.328166         1.250212
 O        -3.783665         1.520434         1.759794
 C        -2.102605         0.230571         0.232480
 C        -2.720963         0.718759        -1.126559
 C        -2.247653         2.242844        -1.055043
 C        -1.697004         2.257138         0.338134
 H         0.505785         0.930145        -0.596616
 H        -1.218027         0.201120         2.847856
 H        -0.953994         1.845330         2.686250
 H        -3.857463         1.074137         2.682461
 H        -2.154483        -0.773877         0.643370
 H        -2.292604         0.072890        -1.916342
 H        -3.765763         0.448280        -1.075501
 H        -1.433053         2.448257        -1.728005
 H        -2.935573         3.091142        -1.307607
 H        -1.235889         3.234104         0.638577
