19
Iteration:  4740
 O         0.454891         0.863230         0.133529
 C        -0.767592         1.050071         0.708628
 C        -1.242471         1.131533         2.202666
 C        -2.549154         1.313110         1.305391
 O        -3.855670         1.714447         1.614458
 C        -2.072403         0.124204         0.372573
 C        -2.518711         0.475748        -1.094403
 C        -2.251802         2.016290        -1.024714
 C        -1.726268         2.246018         0.397222
 H         0.494094         0.278110        -0.581396
 H        -1.098140         0.204170         2.762503
 H        -0.827194         2.004301         2.732257
 H        -3.811229         1.646578         2.599512
 H        -2.066407        -0.891286         0.836531
 H        -1.992064        -0.067843        -1.929856
 H        -3.550293         0.060847        -1.336320
 H        -1.387446         2.364523        -1.704270
 H        -3.061396         2.727523        -1.202652
 H        -1.748194         3.329466         0.752572
