19
Iteration:  2238
 O         0.416813         0.897287         0.038362
 C        -0.774174         0.951808         0.748361
 C        -1.174347         0.995432         2.213842
 C        -2.630272         1.307478         1.233192
 O        -3.822363         1.633396         1.895304
 C        -2.211334         0.206835         0.246329
 C        -2.617512         0.742009        -1.181788
 C        -2.048235         2.099923        -1.019889
 C        -1.660483         2.140296         0.444823
 H         0.870711        -0.028163         0.376240
 H        -1.212117        -0.017469         2.741074
 H        -0.761945         1.901012         2.648501
 H        -4.344232         0.801400         1.615829
 H        -2.226589        -0.881707         0.395110
 H        -2.199215         0.301223        -2.091974
 H        -3.626653         0.746819        -1.416792
 H        -1.243428         2.503370        -1.637632
 H        -2.800145         2.871071        -1.327564
 H        -1.572438         3.170376         0.853318
