19
Iteration:   774charge 0 multiplicity 1
 O         0.447558         0.771717         0.164035
 C        -0.861280         0.968319         0.672056
 C        -1.315037         0.849391         2.099180
 C        -2.496251         1.314567         1.315730
 O        -3.761825         1.593827         1.817762
 C        -2.146651         0.247771         0.220157
 C        -2.511596         0.734808        -1.151144
 C        -2.259256         2.275342        -0.973476
 C        -1.614481         2.273084         0.379083
 H         0.458587         0.149919        -0.496369
 H        -1.405559        -0.179244         2.495340
 H        -0.802590         1.566999         2.877940
 H        -4.017487         0.995359         2.604756
 H        -2.262747        -0.747136         0.498922
 H        -1.830706         0.209551        -1.815957
 H        -3.508893         0.637363        -1.460346
 H        -1.580952         2.838923        -1.607658
 H        -3.338724         2.646319        -0.931539
 H        -1.225017         3.255614         0.696089
