19
Iteration:   858
 O         0.591368         0.740311         0.074938
 C        -0.773479         0.986654         0.651578
 C        -1.256831         0.876484         2.151725
 C        -2.519870         1.311631         1.326834
 O        -3.877944         1.563139         1.855654
 C        -2.134304         0.256574         0.201394
 C        -2.641417         0.823182        -1.079624
 C        -2.249686         2.245626        -1.052812
 C        -1.638598         2.275304         0.404752
 H         0.905585         0.052152         0.787816
 H        -1.221546        -0.157000         2.423631
 H        -0.865659         1.559754         2.827057
 H        -4.260411         0.710177         1.856754
 H        -2.421714        -0.828823         0.501760
 H        -2.180343         0.337153        -1.963969
 H        -3.808631         0.771461        -1.140510
 H        -1.438775         2.490171        -1.759416
 H        -3.124164         2.897090        -1.241921
 H        -1.423190         3.190487         0.879198
