19
Iteration:  3544
 O         0.376608         0.685391         0.032606
 C        -0.828639         1.017146         0.749598
 C        -1.368686         0.849669         2.190920
 C        -2.481640         1.245680         1.331763
 O        -3.795774         1.652574         1.791668
 C        -1.993128         0.192309         0.186055
 C        -2.504559         0.753694        -1.164579
 C        -2.226734         2.217931        -0.958785
 C        -1.663155         2.269848         0.507736
 H         0.932121         1.532948         0.088566
 H        -1.233810        -0.140072         2.654495
 H        -1.094223         1.737992         2.737568
 H        -4.401906         2.096775         1.089336
 H        -1.991327        -0.922065         0.376125
 H        -2.118342         0.155919        -2.042126
 H        -3.569619         0.407089        -1.182046
 H        -1.410394         2.420493        -1.708212
 H        -3.117252         2.779529        -1.146311
 H        -1.488789         3.137096         1.144327
