19
Iteration:  1056charge 0 multiplicity 1
 O         0.491158         0.844780         0.120721
 C        -0.822182         0.882585         0.650988
 C        -1.227128         0.911359         2.185290
 C        -2.503195         1.237890         1.319980
 O        -3.743413         1.633190         1.663262
 C        -2.129660         0.218203         0.189517
 C        -2.734898         0.846992        -1.099998
 C        -2.226586         2.238344        -0.947747
 C        -1.577247         2.153171         0.445017
 H         0.987177         0.232830         0.809187
 H        -1.128183         0.079965         2.960365
 H        -0.908055         1.762974         2.791644
 H        -4.519558         0.964053         1.741578
 H        -2.341684        -0.897416         0.388689
 H        -2.502249         0.295542        -2.025146
 H        -3.892657         0.743329        -1.083982
 H        -1.615913         2.572116        -1.741971
 H        -3.078329         2.887767        -0.922297
 H        -1.304226         3.030117         0.920783
