19
Iteration:  2195
 O         0.499107         0.835014         0.179283
 C        -0.788448         1.019238         0.790771
 C        -1.218174         0.858195         2.156700
 C        -2.496403         1.353323         1.272740
 O        -3.808363         1.627725         1.741146
 C        -2.100272         0.195575         0.226146
 C        -2.689786         0.692609        -1.171889
 C        -2.247313         2.181266        -1.018538
 C        -1.659094         2.270227         0.375987
 H         0.970510        -0.004662         0.419066
 H        -1.304541        -0.263160         2.373631
 H        -0.758064         1.554277         2.848414
 H        -4.231428         0.873717         2.160817
 H        -2.304550        -0.745309         0.753350
 H        -2.473365         0.143136        -2.115302
 H        -3.804164         0.648540        -1.119425
 H        -1.601852         2.475576        -1.904122
 H        -2.943893         3.037888        -1.111544
 H        -1.202590         3.217236         0.692348
