19
Iteration:  4274
 O         0.528557         0.708575         0.363563
 C        -0.830295         0.955408         0.664772
 C        -1.181854         1.211985         2.070278
 C        -2.527929         1.307345         1.306819
 O        -3.787254         1.561693         1.923979
 C        -2.187653         0.167508         0.258061
 C        -2.548050         0.607908        -1.101224
 C        -2.258090         2.156029        -1.133155
 C        -1.739081         2.248200         0.268794
 H         0.681171         1.136611        -0.468532
 H        -1.083386         0.459741         2.827567
 H        -0.890180         2.219458         2.441297
 H        -4.424621         1.541960         1.166511
 H        -2.207979        -0.913992         0.474165
 H        -1.961604         0.118468        -1.892777
 H        -3.571242         0.298495        -1.396759
 H        -1.412238         2.194564        -1.873246
 H        -3.204706         2.709246        -1.241090
 H        -1.506333         3.227498         0.678661
