19
Iteration:  3101charge 0 multiplicity 1
 O         0.546278         0.709460         0.295208
 C        -0.831562         0.927137         0.645022
 C        -1.253582         0.963621         2.151588
 C        -2.484168         1.269014         1.304093
 O        -3.788227         1.547939         1.707842
 C        -2.163524         0.214834         0.232701
 C        -2.675730         0.772879        -1.136766
 C        -2.238329         2.231022        -1.007658
 C        -1.662889         2.276201         0.402464
 H         0.591375         1.121899        -0.628484
 H        -1.144140        -0.005848         2.622259
 H        -0.936926         1.831119         2.712251
 H        -4.037919         1.221657         2.538016
 H        -2.234068        -0.875328         0.408443
 H        -2.054856         0.324754        -1.906071
 H        -3.777320         0.655889        -1.338031
 H        -1.432004         2.457025        -1.691960
 H        -2.921544         3.109112        -1.276756
 H        -1.460652         3.352190         0.728364
