19
Iteration:   800
 O         0.473755         0.733650        -0.006438
 C        -0.831250         0.984988         0.666809
 C        -1.236567         0.915127         2.205459
 C        -2.531662         1.234140         1.353307
 O        -3.843373         1.734188         1.869333
 C        -2.041347         0.210610         0.181247
 C        -2.482799         0.729420        -1.211147
 C        -2.254537         2.298885        -0.997158
 C        -1.759891         2.196894         0.532054
 H         0.549310        -0.174631        -0.139021
 H        -1.190997        -0.098899         2.737407
 H        -0.724172         1.659629         2.870357
 H        -4.514073         0.910238         1.900044
 H        -2.156226        -0.884880         0.410640
 H        -1.800783         0.238501        -1.978256
 H        -3.520185         0.413476        -1.591299
 H        -1.399473         2.793783        -1.478623
 H        -3.117490         2.850972        -1.213999
 H        -1.553793         3.152520         1.217676
