19
Iteration:  1380
 O         0.505824         0.688071         0.260974
 C        -0.800251         1.000723         0.552150
 C        -1.245708         0.984079         2.123146
 C        -2.455243         1.281595         1.331991
 O        -3.747829         1.614639         1.690634
 C        -2.063372         0.191515         0.223584
 C        -2.747374         0.745932        -1.045938
 C        -2.312701         2.241183        -0.966410
 C        -1.655995         2.214390         0.364354
 H         1.055028         1.413941         0.393210
 H        -1.260000         0.019351         2.664872
 H        -0.728115         1.867770         2.748052
 H        -4.338522         0.727954         1.732867
 H        -2.118748        -0.824925         0.475475
 H        -2.523752         0.161035        -2.036989
 H        -3.822593         0.549330        -0.859568
 H        -1.567040         2.490280        -1.775593
 H        -3.222161         2.878537        -1.071807
 H        -1.228515         3.133838         0.816164
