19
Iteration:   589charge 0 multiplicity 1
 O         0.463198         0.688324         0.259054
 C        -0.769611         0.974394         0.645246
 C        -1.273492         1.001484         2.156379
 C        -2.479312         1.343581         1.291013
 O        -3.770277         1.441605         1.796974
 C        -2.072838         0.246571         0.174568
 C        -2.640479         0.794881        -1.160844
 C        -2.316206         2.276715        -1.071799
 C        -1.681028         2.249460         0.391830
 H         0.463154        -0.210841        -0.075837
 H        -1.158528         0.029991         2.613353
 H        -0.793034         1.823895         2.738953
 H        -3.743260         1.960709         2.544176
 H        -2.191015        -0.736563         0.485053
 H        -2.074146         0.347036        -1.977938
 H        -3.699277         0.567901        -1.189559
 H        -1.645260         2.613579        -1.837457
 H        -3.176371         2.848217        -0.944555
 H        -1.271864         3.202847         0.937664
