19
Iteration:  2166
 O         0.528358         0.754954         0.214625
 C        -0.859263         0.958883         0.619192
 C        -1.269405         1.031451         2.124632
 C        -2.541641         1.210536         1.331711
 O        -3.755152         1.618712         1.645860
 C        -2.085294         0.159547         0.239438
 C        -2.573555         0.776662        -1.062328
 C        -2.358873         2.268315        -0.951514
 C        -1.659691         2.218457         0.375501
 H         0.817813        -0.280556         0.441922
 H        -1.251917         0.111634         2.622724
 H        -0.742196         1.945150         2.439063
 H        -4.042550         1.144867         2.535099
 H        -2.078933        -0.924469         0.506135
 H        -1.971895         0.395224        -1.950576
 H        -3.719202         0.650479        -1.342298
 H        -1.756803         2.684124        -1.836957
 H        -3.238972         2.897417        -0.826434
 H        -1.211896         3.090716         0.827222
