19
Iteration:   492charge 0 multiplicity 1
 O         0.497583         0.761439         0.125205
 C        -0.876970         0.972436         0.595255
 C        -1.230223         0.922042         2.182556
 C        -2.592573         1.290181         1.448165
 O        -3.867182         1.567823         1.944436
 C        -2.066160         0.198277         0.114660
 C        -2.537110         0.732375        -1.206829
 C        -2.210481         2.234189        -1.136221
 C        -1.712453         2.264546         0.395092
 H         0.869417        -0.026073         0.593324
 H        -1.156462         0.004260         2.694484
 H        -0.809849         1.733816         2.790057
 H        -3.749411         2.267088         2.529110
 H        -2.244142        -0.782779         0.369746
 H        -1.856937         0.321206        -1.968626
 H        -3.570979         0.525795        -1.421491
 H        -1.341705         2.486007        -1.841009
 H        -3.127831         2.826498        -1.259360
 H        -1.392669         3.180459         0.993292
