19
Iteration:  3443
 O         0.406212         0.638539         0.204615
 C        -0.834417         0.979753         0.630985
 C        -1.210802         1.015648         2.098454
 C        -2.504353         1.359103         1.355504
 O        -3.781990         1.393473         1.898010
 C        -2.149793         0.264162         0.280778
 C        -2.566800         0.746067        -1.193595
 C        -2.205559         2.289982        -1.066531
 C        -1.614051         2.315980         0.333337
 H         0.910679         0.650151         1.015873
 H        -1.413755         0.072189         2.629481
 H        -0.943702         1.792619         2.765893
 H        -4.499659         1.269858         1.171933
 H        -2.374561        -0.737584         0.620074
 H        -2.064318         0.361704        -2.110692
 H        -3.647206         0.797501        -1.397196
 H        -1.447818         2.531759        -1.783615
 H        -3.036588         2.972467        -1.310506
 H        -1.436139         3.294123         0.803532
