19
Iteration:   575charge 0 multiplicity 1
 O         0.483908         0.695666         0.209330
 C        -0.861450         1.007916         0.606080
 C        -1.233638         1.007964         2.086087
 C        -2.470648         1.278980         1.304774
 O        -3.760458         1.451490         1.669999
 C        -2.064175         0.177557         0.250067
 C        -2.640413         0.735343        -1.058701
 C        -2.268351         2.313989        -0.909372
 C        -1.733035         2.330642         0.419739
 H         0.507140        -0.237879        -0.239215
 H        -1.377567         0.044347         2.660442
 H        -0.847468         1.798700         2.784948
 H        -3.765921         2.217415         2.384829
 H        -2.033231        -0.939198         0.494321
 H        -2.368734         0.317458        -2.021859
 H        -3.748837         0.579747        -1.110977
 H        -1.441912         2.562067        -1.549530
 H        -2.957874         3.023874        -1.341555
 H        -1.278130         3.220249         0.792728
