19
Iteration:  4840
 O         0.486462         0.769854         0.239144
 C        -0.831867         0.988152         0.682858
 C        -1.240192         1.172435         2.178434
 C        -2.504116         1.338048         1.248397
 O        -3.738902         1.581321         1.787771
 C        -2.072130         0.189266         0.297050
 C        -2.578725         0.535880        -1.049648
 C        -2.293120         2.081717        -1.148207
 C        -1.717465         2.229500         0.267285
 H         0.969246         1.135645         0.913149
 H        -1.067347         0.346985         2.796401
 H        -0.968692         2.093667         2.733601
 H        -4.269987         2.064059         1.144807
 H        -2.303458        -0.793391         0.749701
 H        -2.153789        -0.066711        -1.851653
 H        -3.710537         0.356060        -0.982733
 H        -1.619707         2.235570        -1.941868
 H        -3.180816         2.550869        -1.225339
 H        -1.796420         3.207636         0.826775
