19
Iteration:   836
 O         0.409985         0.822986         0.030564
 C        -0.803441         0.876646         0.665295
 C        -1.253073         0.896524         2.171923
 C        -2.519123         1.378212         1.348151
 O        -3.793478         1.543247         1.822183
 C        -2.198574         0.274974         0.246693
 C        -2.576552         0.683286        -1.172162
 C        -2.200991         2.316166        -0.968295
 C        -1.575296         2.266446         0.440046
 H         0.839606         0.201814         0.548515
 H        -1.433606        -0.079930         2.576846
 H        -0.742780         1.569833         2.762325
 H        -4.333332         0.680124         1.653596
 H        -2.387865        -0.828796         0.607480
 H        -1.820805         0.194328        -1.822104
 H        -3.676883         0.583804        -1.545783
 H        -1.492237         2.676868        -1.730775
 H        -3.175210         2.871872        -1.009501
 H        -1.115656         3.147599         0.842530
