19
Iteration:  2527charge 0 multiplicity 1
 O         0.434193         0.627833         0.271918
 C        -0.796710         1.051169         0.590092
 C        -1.276712         0.934446         2.099011
 C        -2.506951         1.289574         1.315376
 O        -3.752387         1.615639         1.781656
 C        -2.082459         0.255919         0.238192
 C        -2.568859         0.629531        -1.128848
 C        -2.272621         2.277612        -0.978220
 C        -1.719540         2.338136         0.385932
 H         0.583046         0.819137        -0.618909
 H        -1.222125         0.038762         2.795523
 H        -0.897117         1.791687         2.737522
 H        -4.064681         0.856434         2.133730
 H        -1.952174        -0.774756         0.602379
 H        -1.895059         0.216040        -1.840223
 H        -3.618037         0.419907        -1.336769
 H        -1.509204         2.372805        -1.771728
 H        -3.139584         2.900067        -1.272819
 H        -1.506833         3.323502         0.770395
