19
Iteration:   425charge 0 multiplicity 1
 O         0.454149         0.560684         0.099291
 C        -0.764867         0.999142         0.636896
 C        -1.206127         1.003411         2.084098
 C        -2.515495         1.318347         1.267212
 O        -3.911838         1.549009         1.688488
 C        -2.023430         0.180026         0.219533
 C        -2.569996         0.724294        -1.114469
 C        -2.250727         2.245399        -0.902062
 C        -1.748286         2.319435         0.510301
 H         1.085570         1.234241         0.557368
 H        -1.145551         0.008042         2.494168
 H        -0.713585         1.717907         2.737709
 H        -3.821818         2.178810         2.563967
 H        -2.145237        -0.819558         0.519677
 H        -2.079802         0.367682        -2.003232
 H        -3.628001         0.450120        -1.043832
 H        -1.602403         2.621959        -1.755309
 H        -3.190715         2.809667        -0.777649
 H        -1.492918         3.355367         0.980697
