19
Iteration:  4874charge 0 multiplicity 1
 O         0.521139         0.748678         0.176500
 C        -0.813214         1.045325         0.665051
 C        -1.255189         1.085688         2.179875
 C        -2.523092         1.394792         1.333751
 O        -3.872929         1.616414         1.679277
 C        -2.060562         0.218690         0.323747
 C        -2.522814         0.469978        -1.065970
 C        -2.264654         1.993297        -1.060986
 C        -1.680204         2.267764         0.367961
 H         0.771138         1.524224        -0.290628
 H        -1.276952         0.130093         2.680763
 H        -0.959582         1.940875         2.774254
 H        -4.180071         2.446497         2.089597
 H        -2.224984        -0.718909         0.875645
 H        -1.959037        -0.052937        -1.830094
 H        -3.631788         0.121832        -1.158056
 H        -1.719535         2.280654        -1.892754
 H        -3.148410         2.569483        -1.138415
 H        -1.599993         3.376241         0.584355
