19
Iteration:    47
 O         0.355635         0.856137         0.093655
 C        -0.866658         0.931384         0.717137
 C        -1.308429         0.827795         2.201634
 C        -2.475195         1.290521         1.299968
 O        -3.760335         1.389566         1.827436
 C        -2.170908         0.238633         0.233963
 C        -2.617277         0.851035        -1.182614
 C        -2.079510         2.261777        -1.064734
 C        -1.597906         2.260856         0.419670
 H         0.913871         0.314295         0.759334
 H        -1.528505        -0.051703         2.732820
 H        -0.761742         1.592779         2.810426
 H        -4.114995         2.349224         1.871713
 H        -2.367286        -0.823044         0.373344
 H        -2.085427         0.327318        -1.977579
 H        -3.670160         0.826338        -1.342203
 H        -1.277350         2.570686        -1.850740
 H        -2.958623         2.929225        -1.193884
 H        -1.284956         3.256097         0.885650
