19
Iteration:  3327charge 0 multiplicity 1
 O         0.486098         0.571362         0.264684
 C        -0.862083         1.060407         0.718275
 C        -1.287969         0.979281         2.131833
 C        -2.570134         1.293370         1.240161
 O        -3.729488         1.470263         1.965781
 C        -2.126951         0.300137         0.177597
 C        -2.503135         0.767049        -1.201825
 C        -2.239002         2.272040        -1.051877
 C        -1.686792         2.246652         0.340909
 H         0.877203         1.122464        -0.360955
 H        -1.174843        -0.017215         2.661277
 H        -1.150432         1.923659         2.710029
 H        -4.476150         1.968952         1.405652
 H        -2.092554        -0.826952         0.307865
 H        -1.998716         0.142857        -1.967741
 H        -3.554025         0.485924        -1.397750
 H        -1.488997         2.684728        -1.810298
 H        -3.199878         2.780171        -0.983194
 H        -1.528571         3.204346         0.809936
