19
Iteration:  4415charge 0 multiplicity 1
 O         0.517583         0.725040         0.370100
 C        -0.792379         1.001886         0.631824
 C        -1.249625         1.225679         2.139607
 C        -2.488100         1.371059         1.301869
 O        -3.830937         1.492433         1.909193
 C        -2.091523         0.220174         0.315797
 C        -2.610582         0.553279        -1.095766
 C        -2.260145         2.070780        -1.195310
 C        -1.702211         2.282885         0.225778
 H         0.578375         0.698876        -0.700580
 H        -1.285485         0.372628         2.877217
 H        -0.717725         2.161006         2.555029
 H        -4.341507         2.125933         1.337675
 H        -2.156541        -0.758309         0.840130
 H        -2.056340         0.133462        -1.931736
 H        -3.630892         0.299050        -1.491426
 H        -1.515418         2.123160        -1.868206
 H        -3.227677         2.613454        -1.315107
 H        -1.294370         3.210523         0.669418
