19
Iteration:   290charge 0 multiplicity 1
 O         0.473294         0.762771         0.245892
 C        -0.826162         0.963290         0.650601
 C        -1.183448         0.913018         2.169792
 C        -2.446446         1.368169         1.358970
 O        -3.825586         1.516292         1.667193
 C        -2.130872         0.251724         0.231152
 C        -2.574234         0.736094        -1.202730
 C        -2.326622         2.224536        -0.974589
 C        -1.655978         2.259744         0.405792
 H         0.647883         0.069659        -0.507237
 H        -1.275013        -0.165419         2.470928
 H        -0.733170         1.621499         2.861884
 H        -4.006904         1.847619         2.676503
 H        -2.583171        -0.766583         0.621252
 H        -1.887393         0.205039        -1.878846
 H        -3.654312         0.499913        -1.379508
 H        -1.859582         2.902095        -1.696656
 H        -3.302302         2.708356        -0.928937
 H        -0.980914         3.189166         0.790146
