19
Iteration:  4077
 O         0.472605         0.710186         0.180603
 C        -0.841270         0.961088         0.708345
 C        -1.197327         0.904188         2.201872
 C        -2.528492         1.385553         1.290230
 O        -3.814857         1.591578         1.653064
 C        -2.066250         0.206190         0.306115
 C        -2.508232         0.633503        -1.072721
 C        -2.288770         2.217168        -0.970207
 C        -1.703229         2.349750         0.451226
 H         0.384138         0.944046        -0.778365
 H        -1.224663        -0.137470         2.559189
 H        -0.632435         1.575880         2.854410
 H        -4.390484         1.593873         0.816315
 H        -2.316686        -0.697603         0.842557
 H        -2.050612         0.085419        -1.942635
 H        -3.600090         0.449009        -1.087345
 H        -1.623554         2.604182        -1.758926
 H        -3.193523         2.742506        -1.280873
 H        -1.267811         3.295828         0.778537
