19
Iteration:  4791charge 0 multiplicity 1
 O         0.460677         0.837473         0.214446
 C        -0.810804         1.068765         0.703324
 C        -1.236508         1.170812         2.108501
 C        -2.533674         1.403083         1.331590
 O        -3.781027         1.581217         1.808189
 C        -2.186804         0.230422         0.349993
 C        -2.496886         0.515679        -1.090206
 C        -2.211216         2.026546        -1.166731
 C        -1.713376         2.300038         0.285873
 H         0.610615        -0.206636         0.223671
 H        -1.380974         0.243856         2.793062
 H        -0.886814         1.927693         2.809513
 H        -4.205200         0.683608         1.798726
 H        -2.347931        -0.769881         0.802606
 H        -2.008743        -0.246643        -1.736658
 H        -3.548678         0.385283        -1.276807
 H        -1.349486         2.273164        -1.842015
 H        -3.296617         2.385073        -1.224340
 H        -1.185816         3.234144         0.332797
