19
Iteration:  3487charge 0 multiplicity 1
 O         0.444335         0.664819         0.205907
 C        -0.852197         1.041523         0.666921
 C        -1.266442         0.999970         2.118104
 C        -2.521765         1.285042         1.286930
 O        -3.746671         1.521948         1.921087
 C        -2.153754         0.159192         0.202251
 C        -2.558533         0.764504        -1.238663
 C        -2.195104         2.280655        -1.034625
 C        -1.716286         2.255080         0.384761
 H         0.999789         0.552315         0.980799
 H        -1.060703        -0.055510         2.458204
 H        -0.823984         1.724447         2.774367
 H        -4.442521         1.839429         1.269132
 H        -2.103259        -0.920472         0.437611
 H        -1.913016         0.187241        -1.963297
 H        -3.666934         0.593099        -1.335676
 H        -1.552999         2.759766        -1.751975
 H        -3.114122         2.915555        -1.118180
 H        -1.316361         3.153673         0.901548
