19
Iteration:  2259charge 0 multiplicity 1
 O         0.360775         0.811025         0.060425
 C        -0.866927         0.936003         0.633219
 C        -1.281362         0.988348         2.181863
 C        -2.541963         1.270582         1.413948
 O        -3.826813         1.583766         1.851118
 C        -2.127880         0.205819         0.304018
 C        -2.501952         0.679722        -1.149036
 C        -2.119039         2.266683        -1.083584
 C        -1.638155         2.309383         0.405711
 H         0.555773        -0.071164         0.226976
 H        -1.081567        -0.031681         2.661696
 H        -0.815998         1.863486         2.644034
 H        -4.275015         0.784335         1.860005
 H        -2.309072        -0.858241         0.551014
 H        -1.958249         0.133573        -1.937611
 H        -3.509721         0.489679        -1.365605
 H        -1.279223         2.544196        -1.711863
 H        -2.940053         2.965576        -1.444036
 H        -1.008474         3.169996         0.769222
