19
Iteration:  4027
 O         0.484684         0.772729         0.327921
 C        -0.822783         0.891092         0.677944
 C        -1.353983         1.004584         2.142892
 C        -2.448734         1.389099         1.250176
 O        -3.805133         1.523741         1.817768
 C        -2.084615         0.186158         0.153830
 C        -2.612802         0.712839        -1.176949
 C        -2.225756         2.273932        -1.060795
 C        -1.685695         2.213257         0.351245
 H         0.631321         0.157501        -0.357926
 H        -1.588656         0.149687         2.768434
 H        -0.810841         1.871870         2.682710
 H        -3.475095         1.639320         2.682899
 H        -2.108256        -0.878350         0.465183
 H        -1.938526         0.209786        -1.894381
 H        -3.681842         0.589392        -1.172498
 H        -1.533210         2.591669        -1.900214
 H        -3.129552         2.892042        -1.198036
 H        -1.425997         3.155662         0.843669
