19
Iteration:   291
 O         0.484145         0.762816         0.244779
 C        -0.823341         0.964181         0.650834
 C        -1.176858         0.912852         2.174397
 C        -2.449288         1.362066         1.362364
 O        -3.830275         1.514179         1.671306
 C        -2.143137         0.260800         0.233529
 C        -2.575579         0.734964        -1.204381
 C        -2.321081         2.220231        -0.976156
 C        -1.655470         2.261049         0.397781
 H         0.639818         0.083089        -0.514543
 H        -1.269540        -0.166566         2.456520
 H        -0.772896         1.614548         2.872927
 H        -3.993332         1.840361         2.663870
 H        -2.632415        -0.722143         0.626989
 H        -1.884250         0.204564        -1.862266
 H        -3.648101         0.490802        -1.404048
 H        -1.863413         2.934076        -1.714185
 H        -3.311913         2.703749        -0.928311
 H        -0.984817         3.166845         0.792351
