19
Iteration:   511charge 0 multiplicity 1
 O         0.436321         0.852599         0.084505
 C        -0.792637         1.035947         0.721399
 C        -1.246468         0.920437         2.147512
 C        -2.525659         1.216195         1.277751
 O        -3.797159         1.556658         1.825719
 C        -2.167340         0.207839         0.265834
 C        -2.588327         0.709305        -1.173793
 C        -2.148027         2.187737        -1.017890
 C        -1.730871         2.232222         0.453809
 H         0.552240        -0.160611        -0.074439
 H        -1.239846        -0.090700         2.636941
 H        -0.911183         1.639358         2.932735
 H        -3.730082         2.489449         2.105795
 H        -2.116354        -0.853889         0.418097
 H        -2.201828         0.182985        -2.047709
 H        -3.691869         0.604669        -1.328480
 H        -1.269632         2.456925        -1.576937
 H        -2.883966         2.951038        -1.207901
 H        -1.344581         3.290872         0.792248
