19
Iteration:  4755
 O         0.499816         0.855060         0.084499
 C        -0.854016         1.032649         0.710098
 C        -1.228175         1.136818         2.208766
 C        -2.575181         1.301622         1.345888
 O        -3.865281         1.720750         1.676652
 C        -2.021713         0.154543         0.395261
 C        -2.447247         0.519761        -1.073708
 C        -2.163808         2.021310        -1.071996
 C        -1.807355         2.203936         0.347151
 H         0.159768         0.019691        -0.515902
 H        -1.145486         0.266181         2.868701
 H        -1.050363         2.131978         2.662520
 H        -4.246020         1.420009         2.540444
 H        -2.013227        -0.873398         0.746248
 H        -1.964304        -0.039196        -1.856374
 H        -3.566135         0.561891        -1.139031
 H        -1.626303         2.436226        -1.838697
 H        -3.150956         2.468181        -1.406118
 H        -1.374083         3.131635         0.728458
