19
Iteration:  2971charge 0 multiplicity 1
 O         0.508591         0.766920         0.306711
 C        -0.810457         0.945936         0.678288
 C        -1.207259         0.968206         2.068491
 C        -2.536800         1.317798         1.338820
 O        -3.850720         1.480963         1.803692
 C        -2.171865         0.242828         0.258954
 C        -2.616184         0.659091        -1.145308
 C        -2.278934         2.267663        -1.074590
 C        -1.599969         2.210397         0.353755
 H         0.726391         0.775531        -0.591305
 H        -1.164229         0.023862         2.614976
 H        -0.867481         1.914658         2.534228
 H        -3.889995         2.372706         2.388661
 H        -2.299975        -0.842827         0.483216
 H        -1.990835         0.343208        -1.959897
 H        -3.681183         0.543310        -1.452972
 H        -1.466608         2.542016        -1.747366
 H        -3.071174         2.966747        -1.077163
 H        -1.165146         3.214181         0.618528
