19
Iteration:  3773charge 0 multiplicity 1
 O         0.498671         0.828061         0.179191
 C        -0.816323         0.954923         0.642420
 C        -1.274482         0.861637         2.143781
 C        -2.571827         1.267318         1.355969
 O        -3.789773         1.543869         1.844328
 C        -2.137107         0.230978         0.229027
 C        -2.599710         0.698018        -1.157745
 C        -2.161408         2.260616        -1.029558
 C        -1.671227         2.301188         0.449287
 H         0.774143        -0.172878         0.243421
 H        -1.363121        -0.164168         2.529067
 H        -0.745135         1.674958         2.667556
 H        -4.399697         2.075432         1.184685
 H        -2.355572        -0.814489         0.530515
 H        -2.076672         0.269288        -2.064796
 H        -3.645766         0.674457        -1.467130
 H        -1.362459         2.550340        -1.752061
 H        -2.951415         2.956481        -1.314860
 H        -1.428032         3.278682         0.789396
