19
Iteration:  3675charge 0 multiplicity 1
 O         0.378808         0.767704         0.012784
 C        -0.870321         0.931248         0.731899
 C        -1.397081         0.891183         2.201779
 C        -2.450458         1.354467         1.285454
 O        -3.753554         1.538355         1.734925
 C        -2.157700         0.244478         0.347510
 C        -2.538534         0.738438        -1.152629
 C        -2.207450         2.290415        -0.950894
 C        -1.563791         2.247829         0.432601
 H         1.277674         0.638733         0.515760
 H        -1.422350        -0.160709         2.497980
 H        -0.864646         1.598451         2.836184
 H        -4.414541         1.016295         1.136971
 H        -2.291084        -0.779286         0.726873
 H        -1.701872         0.464811        -1.852693
 H        -3.539759         0.352146        -1.317462
 H        -1.630038         2.573241        -1.855234
 H        -3.020574         2.981615        -0.850492
 H        -1.175881         3.218209         0.757488
