19
Iteration:  2925charge 0 multiplicity 1
 O         0.484752         0.698667         0.303501
 C        -0.862709         0.985563         0.638224
 C        -1.276969         0.992107         2.170356
 C        -2.499619         1.281752         1.268385
 O        -3.833411         1.601108         1.780962
 C        -1.956151         0.220415         0.228203
 C        -2.695689         0.695388        -1.095827
 C        -2.220811         2.216868        -1.048646
 C        -1.697754         2.334372         0.312611
 H         0.684611         0.820037        -0.628035
 H        -1.272571        -0.069591         2.474077
 H        -0.788261         1.747020         2.766867
 H        -3.852022         0.843093         2.493191
 H        -1.861319        -0.843483         0.421483
 H        -2.295756         0.247807        -1.995687
 H        -3.783097         0.548431        -0.945088
 H        -1.493957         2.259963        -1.809014
 H        -3.024080         2.870038        -1.310682
 H        -1.220358         3.241421         0.816354
