19
Iteration:   607
 O         0.609146         0.715936         0.207972
 C        -0.823189         0.998061         0.646019
 C        -1.222225         0.950947         2.140565
 C        -2.577374         1.233262         1.334258
 O        -3.849886         1.460563         1.893269
 C        -2.288553         0.302502         0.238839
 C        -2.557986         0.711234        -1.248523
 C        -2.287199         2.294066        -0.996052
 C        -1.537977         2.374168         0.264772
 H         0.564795        -0.261363         0.112235
 H        -1.370195        -0.049549         2.646041
 H        -0.939781         1.817519         2.792454
 H        -3.744427         1.852533         2.688661
 H        -2.345811        -0.869127         0.461338
 H        -1.869494         0.192572        -1.931513
 H        -3.647838         0.614596        -1.469816
 H        -1.723896         2.677657        -1.862908
 H        -3.353867         2.702714        -0.880462
 H        -1.178829         3.302266         0.574415
