19
Iteration:  1726charge 0 multiplicity 1
 O         0.544133         0.794772         0.127659
 C        -0.809406         1.018102         0.637215
 C        -1.329458         0.948127         2.109071
 C        -2.475541         1.443976         1.375445
 O        -3.761168         1.574594         1.714451
 C        -2.161016         0.227176         0.250770
 C        -2.641626         0.659333        -1.052275
 C        -2.227861         2.109366        -0.974511
 C        -1.695229         2.347207         0.414164
 H         0.694667        -0.128006        -0.024806
 H        -1.458912        -0.098474         2.466682
 H        -0.745592         1.599079         2.844236
 H        -4.078636         0.726727         1.938507
 H        -2.218093        -0.832039         0.716581
 H        -2.101534         0.042113        -1.788853
 H        -3.745559         0.466883        -1.206672
 H        -1.386047         2.397318        -1.745576
 H        -3.064964         2.767608        -1.306474
 H        -1.337173         3.299295         0.821981
