19
Iteration:  4668
 O         0.477427         0.697801         0.417042
 C        -0.789724         1.041404         0.680240
 C        -1.162464         1.250808         2.152867
 C        -2.481943         1.311513         1.273983
 O        -3.810736         1.469388         1.784153
 C        -2.089814         0.158582         0.299502
 C        -2.594158         0.564179        -1.072685
 C        -2.265999         2.118870        -1.188915
 C        -1.793894         2.276118         0.163778
 H         0.748753         1.046253        -0.426698
 H        -1.325188         0.332601         2.713279
 H        -0.783899         2.219054         2.607466
 H        -3.753328         2.344319         2.269807
 H        -2.110973        -0.872168         0.677815
 H        -2.329985        -0.024946        -1.898651
 H        -3.665851         0.379932        -1.104868
 H        -1.528767         2.473068        -1.904796
 H        -3.189588         2.809613        -1.319262
 H        -1.589438         3.121072         0.777086
