19
Iteration:  2326
 O         0.571914         0.797564         0.222702
 C        -0.797011         0.928905         0.684637
 C        -1.266623         0.952699         2.117562
 C        -2.537401         1.244254         1.216081
 O        -3.696909         1.706167         1.697621
 C        -2.214329         0.154026         0.193342
 C        -2.541066         0.706141        -1.145673
 C        -2.377644         2.229929        -0.919458
 C        -1.688047         2.252694         0.433301
 H         0.934226        -0.183074         0.086730
 H        -1.101570        -0.009968         2.740820
 H        -1.021247         1.936535         2.541832
 H        -4.074516         1.184996         2.520538
 H        -2.487182        -0.836358         0.602015
 H        -1.912266         0.256931        -1.966591
 H        -3.518445         0.508372        -1.437468
 H        -1.828230         2.864211        -1.639131
 H        -3.424546         2.587010        -0.801131
 H        -1.492117         3.190801         0.972410
