19
Iteration:  2140charge 0 multiplicity 1
 O         0.509515         0.707343         0.086687
 C        -0.805388         0.999936         0.692505
 C        -1.214913         0.967098         2.234003
 C        -2.514553         1.334739         1.340744
 O        -3.849056         1.619513         1.688152
 C        -2.142959         0.288761         0.199510
 C        -2.505474         0.674327        -1.209726
 C        -2.360709         2.187730        -0.979764
 C        -1.654638         2.279443         0.472814
 H         0.725043        -0.293839         0.361936
 H        -1.224186        -0.021793         2.792879
 H        -0.797418         1.848580         2.728185
 H        -3.891072         1.162787         2.606125
 H        -2.188879        -0.763163         0.490618
 H        -1.739377         0.166371        -1.893367
 H        -3.593952         0.484151        -1.530129
 H        -1.772079         2.718193        -1.785026
 H        -3.380249         2.622843        -0.793011
 H        -1.321271         3.244410         0.921893
