19
Iteration:  4869
 O         0.536380         0.740164         0.191155
 C        -0.841710         1.062726         0.648335
 C        -1.262842         1.115278         2.192376
 C        -2.500815         1.400270         1.344244
 O        -3.884038         1.606064         1.703207
 C        -2.066499         0.235604         0.288719
 C        -2.549547         0.449319        -1.075572
 C        -2.289368         1.992422        -1.004151
 C        -1.665647         2.243108         0.321551
 H         0.892675         1.612950        -0.175202
 H        -1.176272         0.047250         2.532643
 H        -0.932537         1.889330         2.929956
 H        -4.177298         2.521525         1.870455
 H        -2.173721        -0.744484         0.764038
 H        -1.882605        -0.048207        -1.810714
 H        -3.575372         0.247299        -1.089182
 H        -1.566707         2.262639        -1.881426
 H        -3.227822         2.584593        -1.311632
 H        -1.499534         3.268237         0.586060
