19
Iteration:  4837charge 0 multiplicity 1
 O         0.480315         0.769656         0.240426
 C        -0.813271         0.989694         0.662655
 C        -1.264392         1.205542         2.179062
 C        -2.508190         1.355610         1.232922
 O        -3.730540         1.575784         1.809985
 C        -2.087746         0.196291         0.276890
 C        -2.578022         0.525708        -1.055879
 C        -2.290207         2.060204        -1.107200
 C        -1.721905         2.238161         0.261743
 H         1.010489         1.028987         1.044317
 H        -0.979190         0.330146         2.792212
 H        -0.954027         2.108499         2.753992
 H        -4.240449         1.950683         1.038362
 H        -2.306755        -0.818473         0.640424
 H        -2.258782        -0.129081        -1.903590
 H        -3.635728         0.367300        -1.023911
 H        -1.487507         2.253326        -1.878939
 H        -3.249444         2.575867        -1.211216
 H        -1.724069         3.122665         0.847753
