19
Iteration:  4294charge 0 multiplicity 1
 O         0.525030         0.712910         0.277769
 C        -0.828147         1.091150         0.625312
 C        -1.332931         1.169282         2.160308
 C        -2.574894         1.335657         1.294492
 O        -3.802530         1.521845         1.929336
 C        -2.091061         0.196992         0.310074
 C        -2.562180         0.544646        -1.191870
 C        -2.224306         2.088471        -1.121815
 C        -1.653936         2.242361         0.289014
 H         0.810227         1.090911        -0.499423
 H        -1.206562         0.219411         2.722165
 H        -0.961916         2.068181         2.672817
 H        -4.170095         2.380926         1.736497
 H        -2.176686        -0.789329         0.795145
 H        -2.063949        -0.116857        -1.852706
 H        -3.620771         0.283084        -1.423916
 H        -1.449793         2.413613        -1.849802
 H        -3.255837         2.580910        -1.227363
 H        -1.252771         3.255976         0.547777
