19
Iteration:  4247
 O         0.505373         0.731726         0.288332
 C        -0.809610         1.054418         0.683627
 C        -1.247129         1.062512         2.152345
 C        -2.454781         1.395951         1.334221
 O        -3.815112         1.617132         1.729693
 C        -2.109634         0.205214         0.306082
 C        -2.574245         0.574714        -1.097758
 C        -2.280753         2.078235        -1.069692
 C        -1.674818         2.331359         0.303777
 H         0.472894         0.660718        -0.667246
 H        -1.386332         0.056358         2.655939
 H        -0.995500         1.893566         2.817281
 H        -4.103841         0.720066         2.049823
 H        -1.998498        -0.820772         0.690286
 H        -2.142113         0.019194        -1.972876
 H        -3.645239         0.293359        -1.299542
 H        -1.721937         2.304155        -1.977517
 H        -3.244440         2.649679        -1.225778
 H        -1.459441         3.396035         0.607814
