19
Iteration:  1776
 O         0.379488         0.795457         0.017871
 C        -0.885467         0.951283         0.618207
 C        -1.301711         1.061748         2.165774
 C        -2.532691         1.295066         1.334115
 O        -3.756172         1.661233         1.881439
 C        -2.144932         0.165215         0.271621
 C        -2.410805         0.669211        -1.222561
 C        -2.182048         2.212167        -0.986867
 C        -1.801056         2.190536         0.402345
 H         0.790938        -0.023074         0.290452
 H        -1.370056         0.122335         2.785247
 H        -0.980296         1.857702         2.723251
 H        -3.831126         1.154723         2.755744
 H        -2.234837        -0.777753         0.681610
 H        -1.552163         0.360575        -1.824255
 H        -3.268483         0.211233        -1.696067
 H        -1.256008         2.409556        -1.396334
 H        -2.870838         2.996309        -1.300897
 H        -1.305073         3.022046         0.900954
