19
Iteration:  4763
 O         0.443046         0.847122         0.100841
 C        -0.788002         1.023860         0.709990
 C        -1.242948         1.182326         2.199561
 C        -2.580065         1.289201         1.379744
 O        -3.870803         1.712762         1.699541
 C        -2.050006         0.148819         0.339900
 C        -2.440157         0.517668        -1.032517
 C        -2.213722         2.060534        -1.112871
 C        -1.752033         2.227621         0.346114
 H         0.385698        -0.010445        -0.516023
 H        -1.273583         0.306421         2.792005
 H        -0.938439         2.073248         2.800758
 H        -4.156196         1.148048         2.446120
 H        -2.095685        -0.921486         0.634737
 H        -2.002108        -0.164127        -1.777140
 H        -3.509699         0.149893        -1.198012
 H        -1.366525         2.370217        -1.826710
 H        -3.053797         2.622306        -1.449393
 H        -1.342154         3.255888         0.636991
