19
Iteration:  2626charge 0 multiplicity 1
 O         0.536225         0.831888         0.241646
 C        -0.805412         0.937185         0.568007
 C        -1.285901         0.939817         2.068088
 C        -2.523856         1.265532         1.310150
 O        -3.779982         1.731156         1.735716
 C        -2.158592         0.205742         0.260511
 C        -2.563914         0.649517        -1.146045
 C        -2.294616         2.171241        -0.934610
 C        -1.650107         2.203609         0.446465
 H         0.514671         0.448889        -0.609210
 H        -1.298730        -0.055453         2.641171
 H        -0.887311         1.852479         2.601095
 H        -4.215781         1.116447         2.207533
 H        -2.280096        -0.838073         0.628701
 H        -1.904633         0.107466        -1.877759
 H        -3.647102         0.378348        -1.315056
 H        -1.496883         2.643231        -1.498441
 H        -3.177468         2.893518        -0.850154
 H        -1.312373         3.155102         0.872849
