19
Iteration:  3944charge 0 multiplicity 1
 O         0.465130         0.851417        -0.060618
 C        -0.770105         0.963401         0.727497
 C        -1.355468         0.938477         2.242990
 C        -2.545218         1.203360         1.275360
 O        -3.820461         1.664481         1.734315
 C        -2.140567         0.204918         0.329203
 C        -2.534344         0.760375        -1.082336
 C        -2.156548         2.195901        -0.931740
 C        -1.622918         2.193416         0.461089
 H         0.681447        -0.056291         0.127625
 H        -1.351037        -0.109946         2.675977
 H        -1.193203         1.674489         3.003213
 H        -4.491625         1.484553         1.011569
 H        -2.041613        -0.867399         0.627855
 H        -2.057246         0.353185        -1.976643
 H        -3.587232         0.449953        -1.355676
 H        -1.481681         2.339297        -1.755648
 H        -3.018284         2.946851        -0.952300
 H        -1.267719         3.196488         0.858716
