19
Iteration:  3831
 O         0.444925         0.812061         0.054290
 C        -0.791245         0.997129         0.704419
 C        -1.263827         0.879298         2.167010
 C        -2.529629         1.359900         1.331002
 O        -3.852310         1.466989         1.724623
 C        -2.250283         0.252198         0.246482
 C        -2.513801         0.741915        -1.097420
 C        -2.151962         2.215382        -0.962719
 C        -1.607064         2.256938         0.438862
 H         0.881121         0.002306         0.077763
 H        -1.345929        -0.117461         2.541491
 H        -0.806944         1.518677         2.943860
 H        -4.210865         2.279274         1.950983
 H        -2.632693        -0.696477         0.663664
 H        -1.886700         0.200114        -1.835728
 H        -3.585002         0.498924        -1.335948
 H        -1.393320         2.472247        -1.715310
 H        -3.003539         2.848357        -1.009676
 H        -1.204893         3.270242         0.630250
