19
Iteration:  2928
 O         0.502218         0.695167         0.317113
 C        -0.847339         0.981388         0.642590
 C        -1.279124         0.987649         2.149573
 C        -2.491118         1.288710         1.250789
 O        -3.822695         1.578473         1.776860
 C        -1.984749         0.237088         0.239205
 C        -2.714114         0.706929        -1.116464
 C        -2.229833         2.232421        -1.025186
 C        -1.705911         2.316520         0.299889
 H         0.593827         0.871808        -0.619665
 H        -1.244408        -0.041880         2.654619
 H        -0.813125         1.814304         2.761021
 H        -3.817537         0.890692         2.553145
 H        -1.909837        -0.844140         0.522098
 H        -2.259752         0.164669        -1.943760
 H        -3.811453         0.477020        -0.953182
 H        -1.422826         2.323317        -1.851899
 H        -2.964630         2.952533        -1.339318
 H        -1.198154         3.182417         0.741611
