19
Iteration:    96
 O         0.460015         0.679090         0.241809
 C        -0.863727         1.022225         0.622838
 C        -1.197746         0.914732         2.212554
 C        -2.482741         1.185115         1.342917
 O        -3.772706         1.532942         1.701749
 C        -2.062233         0.218285         0.164740
 C        -2.581908         0.788980        -1.191607
 C        -2.289429         2.324790        -0.946360
 C        -1.778882         2.279200         0.490378
 H         0.408514         0.125556        -0.610694
 H        -1.085853        -0.155571         2.663451
 H        -0.767952         1.636792         2.912816
 H        -3.771043         2.434033         1.946308
 H        -1.924990        -0.901263         0.149152
 H        -1.930665         0.423989        -2.009272
 H        -3.690390         0.631348        -1.330507
 H        -1.466634         2.599896        -1.665613
 H        -3.182185         2.974975        -1.135959
 H        -1.506921         3.205990         0.953223
