19
Iteration:  4370
 O         0.517142         0.780062         0.270457
 C        -0.800606         0.972073         0.653523
 C        -1.292817         1.203500         2.190637
 C        -2.484757         1.394129         1.353600
 O        -3.720512         1.655892         1.717462
 C        -2.024740         0.157084         0.341775
 C        -2.586275         0.516058        -1.109126
 C        -2.341927         2.111416        -1.100532
 C        -1.748687         2.238731         0.308392
 H         0.492246         0.277619        -0.658979
 H        -1.378481         0.294196         2.839156
 H        -0.992365         2.057249         2.859258
 H        -4.311672         0.915158         1.419341
 H        -2.180646        -0.926706         0.491433
 H        -2.163223        -0.175894        -1.837576
 H        -3.680780         0.219271        -1.036317
 H        -1.536079         2.394589        -1.640583
 H        -3.225641         2.767782        -1.209412
 H        -1.400975         3.270354         0.623915
