19
Iteration:  4054
 O         0.543996         0.741810         0.252910
 C        -0.784203         1.045517         0.687460
 C        -1.233952         0.956572         2.123411
 C        -2.506805         1.242719         1.361536
 O        -3.861309         1.689504         1.682816
 C        -2.150394         0.213946         0.248398
 C        -2.593478         0.727410        -1.128547
 C        -2.258734         2.182463        -0.977948
 C        -1.675935         2.197451         0.403213
 H         0.476454         0.374101        -0.635836
 H        -1.005806        -0.004208         2.629878
 H        -0.824147         1.792075         2.627856
 H        -4.318169         0.865070         1.809758
 H        -2.100339        -0.833452         0.609500
 H        -1.922579         0.236249        -1.838065
 H        -3.670503         0.512750        -1.398501
 H        -1.592156         2.487417        -1.767615
 H        -3.087135         2.864957        -1.169000
 H        -1.433896         3.193000         0.866355
