19
Iteration:  2318
 O         0.506010         0.769186         0.239154
 C        -0.806831         0.939695         0.640129
 C        -1.271167         1.017945         2.084363
 C        -2.484719         1.253645         1.258456
 O        -3.733678         1.692182         1.712028
 C        -2.127347         0.116683         0.196908
 C        -2.554993         0.715203        -1.116768
 C        -2.369437         2.244128        -0.875090
 C        -1.703006         2.232264         0.400348
 H         0.804968        -0.239597         0.035786
 H        -1.272618         0.137816         2.684745
 H        -0.860457         1.808571         2.722926
 H        -4.086456         1.164671         2.511765
 H        -2.407376        -0.936385         0.216916
 H        -1.730616         0.569773        -1.788123
 H        -3.508971         0.368271        -1.585263
 H        -1.739017         2.719247        -1.689502
 H        -3.298411         2.771633        -0.796697
 H        -1.443874         3.201171         0.715723
