19
Iteration:  1757
 O         0.351835         0.816898         0.047013
 C        -0.862343         0.963974         0.715038
 C        -1.217303         1.035314         2.167635
 C        -2.607310         1.247360         1.304526
 O        -3.803152         1.643847         1.880512
 C        -2.179712         0.177477         0.212939
 C        -2.417407         0.674177        -1.174390
 C        -2.099530         2.174514        -1.060102
 C        -1.678759         2.278585         0.441334
 H         0.580376        -0.167243         0.122129
 H        -0.942246         0.183471         2.949144
 H        -0.853475         1.992008         2.630766
 H        -4.042638         1.028327         2.711492
 H        -2.254725        -0.891540         0.349104
 H        -1.907714         0.017509        -1.883574
 H        -3.493843         0.600378        -1.508454
 H        -1.435377         2.616479        -1.887040
 H        -3.134011         2.575244        -1.170505
 H        -1.549311         3.241058         0.868691
