19
Iteration:  2688
 O         0.458547         0.560529         0.260446
 C        -0.794236         1.038030         0.665948
 C        -1.194818         1.037945         2.055717
 C        -2.533732         1.286773         1.284568
 O        -3.791832         1.596914         1.807476
 C        -2.078579         0.255598         0.292038
 C        -2.506131         0.728500        -1.153061
 C        -2.309162         2.234367        -1.045169
 C        -1.743704         2.298211         0.403229
 H         0.607151         0.731181        -0.639860
 H        -1.186405         0.104483         2.590429
 H        -0.924231         1.828375         2.755130
 H        -4.032886         0.836472         2.210242
 H        -2.375056        -0.771241         0.538269
 H        -1.739638         0.227248        -1.846653
 H        -3.521730         0.446750        -1.197618
 H        -1.524765         2.708273        -1.700437
 H        -3.241921         2.690759        -1.332586
 H        -1.799303         3.299059         0.812084
