19
Iteration:  2597charge 0 multiplicity 1
 O         0.449309         0.793597         0.217413
 C        -0.784784         1.013910         0.734280
 C        -1.159836         0.812555         2.241589
 C        -2.532967         1.242658         1.265957
 O        -3.790599         1.690361         1.749721
 C        -2.090651         0.201370         0.228295
 C        -2.629907         0.670124        -1.131158
 C        -2.202883         2.149175        -1.132795
 C        -1.728562         2.358633         0.372206
 H         0.251814         0.861834        -0.725917
 H        -1.380028        -0.113566         2.721262
 H        -0.652188         1.465387         2.915392
 H        -4.318294         1.059042         2.206436
 H        -2.021599        -0.865421         0.569904
 H        -2.389729         0.013326        -1.901134
 H        -3.726821         0.687549        -0.868172
 H        -1.297358         2.554565        -1.600399
 H        -2.929108         2.957467        -1.240771
 H        -1.515079         3.434092         0.817281
