19
Iteration:   957
 O         0.361764         0.750170         0.048390
 C        -0.874701         0.985534         0.635687
 C        -1.206115         0.954251         2.209363
 C        -2.556873         1.189960         1.339541
 O        -3.801629         1.675949         1.817610
 C        -2.112322         0.141302         0.203924
 C        -2.418442         0.760269        -1.238961
 C        -2.188621         2.333234        -0.978438
 C        -1.776419         2.214221         0.495936
 H         0.602855        -0.261586        -0.066132
 H        -0.942113         0.000379         2.782514
 H        -0.799877         1.836276         2.705749
 H        -3.907552         1.229590         2.688363
 H        -2.242238        -0.983874         0.448748
 H        -1.696343         0.422375        -2.007236
 H        -3.531014         0.506809        -1.534247
 H        -1.376907         2.663090        -1.590204
 H        -3.054415         2.977674        -1.029438
 H        -1.419574         3.028420         1.044400
