19
Iteration:  1921charge 0 multiplicity 1
 O         0.425063         0.875938         0.055753
 C        -0.873176         0.971912         0.645596
 C        -1.320154         0.998823         2.071235
 C        -2.556835         1.222403         1.299000
 O        -3.706015         1.655099         1.871176
 C        -2.243580         0.153989         0.299582
 C        -2.495094         0.653047        -1.130071
 C        -2.051031         2.218853        -0.995963
 C        -1.746515         2.211377         0.452131
 H         0.667959        -0.002291         0.262738
 H        -1.180993         0.164727         2.724334
 H        -1.225349         1.879947         2.628095
 H        -4.019045         1.022858         2.411165
 H        -2.279160        -0.890207         0.518933
 H        -1.913784         0.108011        -1.906716
 H        -3.465997         0.600936        -1.687426
 H        -1.189970         2.462627        -1.634688
 H        -2.813978         2.928885        -1.317150
 H        -1.647454         3.246232         0.780458
