19
Iteration:  4049
 O         0.573000         0.753663         0.272916
 C        -0.817676         1.023586         0.671011
 C        -1.267336         0.978754         2.124635
 C        -2.556829         1.219154         1.318149
 O        -3.822774         1.663663         1.697491
 C        -2.144477         0.202858         0.249081
 C        -2.582133         0.727704        -1.157423
 C        -2.263566         2.192147        -0.983292
 C        -1.643787         2.214726         0.412975
 H         0.346880         0.290458        -0.630135
 H        -0.929859         0.073350         2.630495
 H        -0.840427         1.887065         2.659537
 H        -4.344121         0.928661         2.194678
 H        -2.288911        -0.822154         0.663510
 H        -1.943341         0.258057        -1.926773
 H        -3.657602         0.669095        -1.248255
 H        -1.535735         2.497959        -1.780319
 H        -3.173175         2.805578        -1.146093
 H        -1.322483         3.207100         0.748898
