19
Iteration:  1319charge 0 multiplicity 1
 O         0.378944         0.719979         0.135642
 C        -0.811681         1.060039         0.709480
 C        -1.271904         0.838681         2.142073
 C        -2.525012         1.321154         1.266659
 O        -3.798295         1.660567         1.815424
 C        -2.053810         0.231941         0.247870
 C        -2.462770         0.691294        -1.101682
 C        -2.250232         2.202273        -1.029270
 C        -1.690209         2.293149         0.404561
 H         0.456899         0.975709        -0.752142
 H        -1.436649        -0.241226         2.478268
 H        -0.938920         1.601175         2.929967
 H        -3.922266         0.910025         2.468742
 H        -2.032183        -0.924098         0.516594
 H        -1.963961         0.189740        -1.872122
 H        -3.532245         0.405279        -1.213605
 H        -1.579091         2.494440        -1.822588
 H        -3.163920         2.800870        -1.145872
 H        -1.389268         3.218543         0.831026
