19
Iteration:  1428charge 0 multiplicity 1
 O         0.280835         0.719236         0.040968
 C        -0.897242         0.983790         0.685189
 C        -1.198634         1.030601         2.108417
 C        -2.519703         1.338705         1.325765
 O        -3.792557         1.609522         1.817967
 C        -2.108127         0.187132         0.271571
 C        -2.448180         0.718134        -1.156128
 C        -2.194057         2.175115        -0.964263
 C        -1.690421         2.263652         0.401076
 H         0.991134         0.798610         0.774881
 H        -1.127025        -0.009333         2.493177
 H        -0.874365         1.780758         2.676854
 H        -3.970495         0.892012         2.356401
 H        -2.061467        -0.949111         0.572066
 H        -1.771659         0.203394        -1.803479
 H        -3.447715         0.415275        -1.559644
 H        -1.447242         2.451205        -1.739773
 H        -3.111300         2.804066        -1.106183
 H        -1.325490         3.167372         0.835861
