19
Iteration:  3414
 O         0.452354         0.721467         0.074091
 C        -0.795957         0.960721         0.707103
 C        -1.228057         0.936381         2.154400
 C        -2.526085         1.327160         1.324608
 O        -3.855057         1.573694         1.801827
 C        -2.154585         0.187607         0.271737
 C        -2.581001         0.716838        -1.167664
 C        -2.166079         2.243377        -0.993436
 C        -1.629489         2.245097         0.441218
 H         1.039849         1.359909         0.423141
 H        -1.294975        -0.044472         2.685167
 H        -0.947002         1.722733         2.907866
 H        -4.466329         1.308208         1.142867
 H        -2.278887        -0.914774         0.556082
 H        -2.082367         0.194449        -2.053709
 H        -3.686637         0.771810        -1.228208
 H        -1.438663         2.583565        -1.799448
 H        -3.031699         2.882086        -1.162699
 H        -1.392858         3.176691         0.969012
