19
Iteration:  2854charge 0 multiplicity 1
 O         0.493082         0.716230         0.153891
 C        -0.801473         1.035736         0.694000
 C        -1.209366         0.969106         2.233871
 C        -2.556904         1.334226         1.256201
 O        -3.789055         1.664594         1.783684
 C        -2.112417         0.196800         0.250630
 C        -2.502082         0.658000        -1.217013
 C        -2.300304         2.179717        -0.994729
 C        -1.677113         2.295005         0.459814
 H         0.375590         0.289533        -0.712779
 H        -1.309323        -0.034531         2.633312
 H        -0.872839         1.785428         2.865623
 H        -4.495026         0.951721         2.036545
 H        -2.244609        -0.869904         0.560695
 H        -1.740845         0.134883        -1.847687
 H        -3.496329         0.284814        -1.351554
 H        -1.665608         2.575242        -1.846727
 H        -3.291274         2.697202        -1.113947
 H        -1.599153         3.253463         0.895547
