19
Iteration:   384
 O         0.451947         0.778160         0.099212
 C        -0.830487         0.867642         0.684537
 C        -1.242995         0.900740         2.172918
 C        -2.501749         1.411489         1.290629
 O        -3.858556         1.440272         1.748844
 C        -2.158939         0.225029         0.256145
 C        -2.638337         0.723404        -1.079647
 C        -2.146147         2.201253        -0.992934
 C        -1.536462         2.287278         0.445189
 H         0.669323         1.630143        -0.191755
 H        -1.595113         0.015188         2.640454
 H        -0.741244         1.661043         2.807606
 H        -4.152937         2.274706         1.825190
 H        -2.345716        -0.805086         0.510622
 H        -2.201417         0.173781        -1.923701
 H        -3.700679         0.806553        -1.146623
 H        -1.592821         2.644748        -1.879086
 H        -3.108292         2.783378        -1.087771
 H        -1.060114         3.077832         0.864221
