19
Iteration:   206
 O         0.441006         0.811600         0.070203
 C        -0.828709         0.987818         0.630744
 C        -1.246741         0.910649         2.181167
 C        -2.544170         1.303061         1.351722
 O        -3.823470         1.433607         1.856714
 C        -2.243831         0.219417         0.216964
 C        -2.570358         0.743195        -1.169145
 C        -2.055452         2.230393        -1.047131
 C        -1.676743         2.291175         0.425859
 H         0.947366         0.382153         0.695125
 H        -1.332616        -0.081313         2.691894
 H        -0.814589         1.677040         2.838837
 H        -4.037803         2.292384         2.170274
 H        -2.394614        -0.813908         0.488152
 H        -2.121499         0.130472        -1.958965
 H        -3.649929         0.722943        -1.440047
 H        -1.186091         2.528445        -1.743998
 H        -2.931193         2.936516        -1.155008
 H        -1.369937         3.241865         0.805320
