19
Iteration:  4805charge 0 multiplicity 1
 O         0.515683         0.795386         0.229173
 C        -0.797694         1.038780         0.654943
 C        -1.253239         1.175437         2.187934
 C        -2.522397         1.372870         1.288588
 O        -3.866335         1.586295         1.891198
 C        -2.115185         0.238554         0.361618
 C        -2.553678         0.536050        -1.056647
 C        -2.257522         2.058945        -1.207092
 C        -1.654876         2.255198         0.189262
 H         0.850345         0.079950         0.747006
 H        -1.077784         0.195278         2.621660
 H        -0.831823         2.062279         2.686788
 H        -4.433783         0.901857         1.539160
 H        -2.255187        -0.843461         0.619892
 H        -2.008309        -0.085649        -1.812871
 H        -3.626276         0.267597        -1.194970
 H        -1.611864         2.405078        -2.074162
 H        -3.018108         2.747127        -1.454985
 H        -1.519091         3.237899         0.687777
