19
Iteration:   493charge 0 multiplicity 1
 O         0.493925         0.767097         0.120527
 C        -0.866953         0.982710         0.599495
 C        -1.228877         0.917844         2.195057
 C        -2.586962         1.287290         1.452340
 O        -3.870265         1.567890         1.937393
 C        -2.068369         0.191570         0.110207
 C        -2.544305         0.730814        -1.210682
 C        -2.206529         2.236176        -1.131974
 C        -1.710821         2.265848         0.391688
 H         0.870608        -0.080251         0.580624
 H        -1.138149        -0.015489         2.678697
 H        -0.830679         1.743137         2.786963
 H        -3.738492         2.330085         2.541935
 H        -2.257881        -0.821833         0.392615
 H        -1.840486         0.319989        -1.958255
 H        -3.582663         0.551743        -1.396132
 H        -1.318849         2.459374        -1.832383
 H        -3.138332         2.835889        -1.270601
 H        -1.455385         3.144150         0.981816
