19
Iteration:  4879
 O         0.486448         0.756922         0.172699
 C        -0.756794         1.022149         0.705080
 C        -1.257791         1.062679         2.161492
 C        -2.545586         1.392570         1.309522
 O        -3.863050         1.613643         1.651866
 C        -2.066260         0.192856         0.393284
 C        -2.517822         0.491315        -1.052785
 C        -2.252323         1.999922        -1.112045
 C        -1.715632         2.301067         0.380696
 H         0.704560         1.525784        -0.512442
 H        -1.336321         0.170234         2.899449
 H        -0.888677         1.989102         2.664334
 H        -3.960148         2.365038         2.290237
 H        -2.197609        -0.783373         0.878221
 H        -1.989180        -0.085857        -1.863239
 H        -3.505346         0.123810        -1.253417
 H        -1.650578         2.386135        -2.030056
 H        -3.270486         2.621669        -1.015208
 H        -1.531211         3.373277         0.633990
