19
Iteration:  3713
 O         0.442628         0.620157         0.200190
 C        -0.811049         0.976531         0.667714
 C        -1.145731         1.005327         2.044131
 C        -2.617171         1.241920         1.340021
 O        -3.816772         1.581356         1.850852
 C        -2.045168         0.204469         0.215228
 C        -2.551225         0.794735        -1.202025
 C        -2.238338         2.323723        -1.021152
 C        -1.760760         2.275279         0.434534
 H         0.930874         0.197545         0.908793
 H        -1.060029         0.087322         2.684184
 H        -0.732628         1.694014         2.800648
 H        -4.570459         1.156272         1.294030
 H        -2.154022        -0.885814         0.385754
 H        -1.902720         0.435322        -2.006809
 H        -3.620982         0.640406        -1.574233
 H        -1.347465         2.568672        -1.607246
 H        -3.133434         3.006175        -1.201926
 H        -1.391147         3.186357         1.069475
