19
Iteration:  4926
 O         0.549323         0.763370         0.263103
 C        -0.809515         1.014950         0.685997
 C        -1.190734         1.197745         2.157412
 C        -2.595132         1.380385         1.228292
 O        -3.889601         1.654365         1.812357
 C        -2.111992         0.207829         0.301297
 C        -2.463826         0.491244        -1.111067
 C        -2.261154         2.072393        -1.106197
 C        -1.760299         2.271881         0.315454
 H         0.349599         0.140369        -0.549096
 H        -1.149511         0.288159         2.708590
 H        -0.749511         2.081366         2.748676
 H        -3.935421         1.008492         2.550069
 H        -2.067820        -0.802823         0.741724
 H        -2.008872        -0.206032        -1.806284
 H        -3.487549         0.249144        -1.370796
 H        -1.438767         2.431476        -1.815103
 H        -3.262362         2.460541        -1.413712
 H        -1.492806         3.214530         0.657536
