19
Iteration:  4238charge 0 multiplicity 1
 O         0.546595         0.744556         0.230160
 C        -0.780339         1.098440         0.688207
 C        -1.303001         1.018861         2.141936
 C        -2.535876         1.415635         1.286254
 O        -3.843249         1.615381         1.672328
 C        -2.071218         0.237454         0.269622
 C        -2.585733         0.565328        -1.006692
 C        -2.296881         2.072368        -1.032893
 C        -1.637324         2.284636         0.339445
 H         0.381310         0.460325        -0.673581
 H        -1.291574        -0.009796         2.643244
 H        -0.878135         1.776423         2.790459
 H        -4.064321         1.034490         2.457368
 H        -2.050719        -0.819098         0.592921
 H        -1.881873         0.048195        -1.610891
 H        -3.637086         0.183864        -1.032888
 H        -1.692816         2.334996        -1.889909
 H        -3.195077         2.723916        -1.202778
 H        -1.414001         3.378545         0.565033
