19
Iteration:  4637charge 0 multiplicity 1
 O         0.528844         0.815473         0.181275
 C        -0.791194         1.044241         0.643189
 C        -1.282524         1.123382         2.187951
 C        -2.475229         1.404025         1.371039
 O        -3.919249         1.490862         1.714695
 C        -2.160281         0.228858         0.396969
 C        -2.557472         0.488063        -1.012923
 C        -2.214100         2.024046        -1.092622
 C        -1.652893         2.268897         0.249805
 H         0.592207         0.923833        -0.859261
 H        -1.491347         0.206625         2.818815
 H        -0.820454         1.854638         2.905898
 H        -3.996619         2.441308         1.782830
 H        -2.205111        -0.797039         0.767185
 H        -1.841545         0.043578        -1.693229
 H        -3.570338         0.298870        -1.156282
 H        -1.472058         2.345143        -1.855330
 H        -3.024748         2.792470        -1.334448
 H        -1.319860         3.178472         0.680746
