19
Iteration:  2511
 O         0.548255         0.680918         0.226558
 C        -0.798540         0.982762         0.684334
 C        -1.251772         0.929585         2.082117
 C        -2.537554         1.370304         1.259329
 O        -3.828738         1.713648         1.783631
 C        -2.057760         0.221091         0.230841
 C        -2.520107         0.634191        -1.131301
 C        -2.337200         2.195967        -1.003403
 C        -1.724852         2.304792         0.469608
 H         0.614228         0.559825        -0.708310
 H        -1.298027        -0.139700         2.253860
 H        -0.781545         1.569275         2.817405
 H        -4.234951         0.922088         2.248078
 H        -2.263541        -0.839484         0.441776
 H        -1.912276         0.194005        -2.059727
 H        -3.595435         0.311653        -1.221826
 H        -1.672584         2.704804        -1.732041
 H        -3.315729         2.674474        -0.915112
 H        -1.313643         3.249069         0.929655
