19
Iteration:   998
 O         0.363229         0.782055         0.129475
 C        -0.877926         0.942282         0.710429
 C        -1.223769         0.869304         2.215456
 C        -2.471025         1.373967         1.344634
 O        -3.733084         1.525327         1.855709
 C        -2.175630         0.226965         0.234468
 C        -2.539378         0.738265        -1.199276
 C        -2.236447         2.337923        -1.082459
 C        -1.598607         2.311719         0.346827
 H         0.529141        -0.100185         0.370981
 H        -1.514702        -0.253483         2.393406
 H        -0.922915         1.529597         2.992442
 H        -4.197887         0.701726         1.978622
 H        -2.301271        -0.854458         0.529013
 H        -1.845400         0.274202        -1.887707
 H        -3.586592         0.522200        -1.430107
 H        -1.523483         2.709205        -1.809843
 H        -3.144622         2.874027        -1.202602
 H        -1.098372         3.259849         0.772003
