19
Iteration:  1001charge 0 multiplicity 1
 O         0.326892         0.788124         0.155409
 C        -0.858741         0.965712         0.716291
 C        -1.219934         0.850435         2.196542
 C        -2.460491         1.374515         1.357735
 O        -3.715535         1.521151         1.833161
 C        -2.169791         0.240947         0.223912
 C        -2.550122         0.756051        -1.182247
 C        -2.240561         2.326211        -1.084087
 C        -1.597202         2.312382         0.340004
 H         0.671331        -0.190801         0.399688
 H        -1.481835        -0.256594         2.446450
 H        -0.872742         1.489704         3.031401
 H        -4.239802         0.747490         1.919442
 H        -2.265900        -0.896817         0.472772
 H        -1.873342         0.228925        -1.874996
 H        -3.691068         0.563067        -1.417833
 H        -1.520900         2.625181        -1.804981
 H        -3.176853         2.837217        -1.197658
 H        -1.165869         3.177485         0.701161
