19
Iteration:  1699charge 0 multiplicity 1
 O         0.524012         0.821381         0.204553
 C        -0.772231         1.002313         0.737287
 C        -1.199211         1.023323         2.164994
 C        -2.488360         1.246259         1.385446
 O        -3.817834         1.650338         1.635601
 C        -2.066663         0.117054         0.223850
 C        -2.756182         0.755069        -1.058345
 C        -2.315267         2.228955        -1.042367
 C        -1.618404         2.173489         0.337001
 H         0.818299        -0.051847         0.161990
 H        -1.045434        -0.021496         2.620739
 H        -0.762581         1.796364         2.778466
 H        -4.388667         0.942115         1.773206
 H        -2.054746        -0.907998         0.404512
 H        -2.445196         0.153240        -1.923121
 H        -3.806536         0.623464        -0.875923
 H        -1.650033         2.475361        -1.795712
 H        -3.126855         2.960918        -1.075278
 H        -1.236665         3.110231         0.820925
