19
Iteration:  3854charge 0 multiplicity 1
 O         0.415589         0.720410         0.215682
 C        -0.895184         1.004874         0.626392
 C        -1.182959         0.925773         2.143157
 C        -2.535211         1.280839         1.328929
 O        -3.798345         1.506519         1.773243
 C        -2.137401         0.230335         0.179294
 C        -2.541803         0.732202        -1.158371
 C        -2.218546         2.329196        -1.061971
 C        -1.643654         2.274631         0.407476
 H         0.825182        -0.042791         0.733764
 H        -1.258307        -0.033491         2.641692
 H        -0.879215         1.703203         2.834009
 H        -4.012160         2.009894         2.641922
 H        -2.170974        -0.852865         0.467106
 H        -1.973989         0.235728        -1.942580
 H        -3.642038         0.481693        -1.449539
 H        -1.463299         2.525270        -1.814365
 H        -3.106792         2.945258        -1.140751
 H        -1.338695         3.236838         0.928830
