19
Iteration:  4609
 O         0.375615         0.874344         0.152535
 C        -0.836178         1.034543         0.722547
 C        -1.178251         1.063772         2.208680
 C        -2.474249         1.333422         1.320094
 O        -3.879673         1.635384         1.616859
 C        -2.072282         0.207069         0.361794
 C        -2.486598         0.465000        -1.082606
 C        -2.207458         1.971219        -1.047064
 C        -1.738472         2.254056         0.401744
 H         0.251303         0.631254        -0.782778
 H        -1.052402         0.264580         2.928202
 H        -0.871828         1.939023         2.747793
 H        -3.689361         2.555988         1.899498
 H        -2.174049        -0.843506         0.728067
 H        -1.872036         0.034826        -1.921451
 H        -3.614100         0.370297        -1.066067
 H        -1.369911         2.268003        -1.723500
 H        -3.089666         2.532390        -1.272861
 H        -1.534479         3.314500         0.839744
