19
Iteration:  2229
 O         0.490686         0.908503         0.046330
 C        -0.791785         0.953418         0.688540
 C        -1.270802         0.960226         2.150824
 C        -2.570887         1.272330         1.280144
 O        -3.766800         1.630277         1.842877
 C        -2.222978         0.155651         0.287998
 C        -2.649073         0.699258        -1.182236
 C        -2.072255         2.193427        -1.016435
 C        -1.727184         2.232087         0.458161
 H         0.980186         0.044211         0.428948
 H        -1.117720         0.057632         2.771933
 H        -0.867963         1.767899         2.762160
 H        -4.489759         0.933467         1.707885
 H        -2.421779        -0.872507         0.616380
 H        -2.131521         0.124607        -1.972085
 H        -3.770117         0.683432        -1.291164
 H        -1.052088         2.132429        -1.510986
 H        -2.750737         2.979066        -1.329738
 H        -1.301675         3.119700         0.891483
