19
Iteration:  2616
 O         0.502851         0.820840         0.217717
 C        -0.813761         0.964133         0.655965
 C        -1.247229         0.882062         2.106446
 C        -2.505996         1.324901         1.370172
 O        -3.815510         1.771703         1.728722
 C        -2.059048         0.176082         0.208061
 C        -2.587622         0.665990        -1.111825
 C        -2.263170         2.164788        -1.000397
 C        -1.745404         2.188129         0.443783
 H         0.626419         0.544726        -0.656686
 H        -1.040360        -0.151181         2.498926
 H        -0.829987         1.576016         2.872120
 H        -4.221848         1.092341         2.153534
 H        -2.098965        -0.916623         0.482434
 H        -2.093210         0.256644        -1.974837
 H        -3.697010         0.460058        -1.263873
 H        -1.492669         2.409791        -1.757628
 H        -3.120376         2.917075        -1.194791
 H        -1.360949         3.123007         0.945103
