19
Iteration:  1143
 O         0.451039         0.681270         0.161457
 C        -0.849938         0.938459         0.678133
 C        -1.244814         0.902758         2.121451
 C        -2.551568         1.326910         1.330309
 O        -3.783156         1.589944         1.895258
 C        -2.239694         0.246712         0.237000
 C        -2.411523         0.705484        -1.217622
 C        -2.199081         2.305284        -1.059108
 C        -1.711886         2.305492         0.435581
 H         0.396061         0.739925        -0.857848
 H        -1.140543        -0.053225         2.745475
 H        -0.823805         1.644571         2.820522
 H        -3.959615         1.034265         2.596029
 H        -2.553266        -0.852048         0.388316
 H        -1.652437         0.289132        -1.851249
 H        -3.392616         0.545079        -1.722781
 H        -1.474325         2.681776        -1.713343
 H        -3.129918         2.813252        -1.181012
 H        -1.453195         3.220176         0.874985
