19
Iteration:  1903charge 0 multiplicity 1
 O         0.413877         0.833642         0.065817
 C        -0.857459         0.979689         0.687378
 C        -1.235407         0.986841         2.187381
 C        -2.531936         1.297096         1.332712
 O        -3.880462         1.614757         1.838257
 C        -2.080260         0.224386         0.219391
 C        -2.574806         0.694521        -1.140185
 C        -2.141016         2.141719        -1.068440
 C        -1.649515         2.268760         0.420538
 H         0.798039         0.002441         0.219460
 H        -1.305149        -0.056486         2.718550
 H        -0.701633         1.785886         2.897005
 H        -4.155764         0.924431         2.352582
 H        -2.237135        -0.889984         0.387358
 H        -2.135383         0.129861        -2.002342
 H        -3.690515         0.549430        -1.273175
 H        -1.160385         2.348885        -1.704026
 H        -2.884399         2.921495        -1.344192
 H        -1.222533         3.179838         0.923913
