19
Iteration:  2173charge 0 multiplicity 1
 O         0.599840         0.764512         0.206325
 C        -0.808372         0.963811         0.575792
 C        -1.327740         0.988294         2.153763
 C        -2.463025         1.270619         1.290774
 O        -3.772926         1.613068         1.673624
 C        -2.146336         0.204306         0.233615
 C        -2.631589         0.784560        -1.074944
 C        -2.337852         2.227551        -0.957144
 C        -1.681965         2.220829         0.410667
 H         0.802663        -0.197325         0.464204
 H        -1.197958         0.052401         2.783502
 H        -0.821236         1.864955         2.553744
 H        -4.193968         1.130460         2.442841
 H        -2.017982        -0.872063         0.355996
 H        -2.082704         0.120686        -1.779157
 H        -3.704696         0.554838        -1.297697
 H        -1.756901         2.589602        -1.858886
 H        -3.216275         2.908566        -1.006501
 H        -1.274265         3.069971         0.974519
