19
Iteration:  2924
 O         0.479209         0.699662         0.301113
 C        -0.860795         0.991127         0.637532
 C        -1.276092         0.992356         2.173772
 C        -2.503552         1.282834         1.275816
 O        -3.834929         1.604431         1.783822
 C        -1.954526         0.212380         0.221571
 C        -2.688341         0.692495        -1.086644
 C        -2.219248         2.209241        -1.057889
 C        -1.693123         2.338236         0.322160
 H         0.711925         0.808663        -0.656478
 H        -1.278606        -0.065182         2.426183
 H        -0.783971         1.726840         2.774979
 H        -3.874690         0.869228         2.441106
 H        -1.857335        -0.848595         0.394165
 H        -2.310702         0.264776        -2.023598
 H        -3.763340         0.573183        -0.950213
 H        -1.499274         2.250585        -1.806721
 H        -3.060916         2.862075        -1.304342
 H        -1.244930         3.247545         0.825847
