19
Iteration:  1026
 O         0.572980         0.764743         0.118303
 C        -0.778632         0.972628         0.601785
 C        -1.227818         0.887178         2.090872
 C        -2.529827         1.300189         1.300518
 O        -3.828090         1.617030         1.767504
 C        -2.144505         0.194360         0.212730
 C        -2.707527         0.735744        -1.108609
 C        -2.199492         2.289736        -0.938907
 C        -1.662013         2.270601         0.483615
 H         0.828208         0.020455         0.724333
 H        -1.221272        -0.066616         2.527465
 H        -0.903992         1.641699         2.893135
 H        -4.489499         1.017479         1.642031
 H        -2.260375        -0.826763         0.528875
 H        -2.273678         0.205171        -1.997614
 H        -3.813557         0.645702        -1.097185
 H        -1.328055         2.486749        -1.644283
 H        -3.101693         2.958515        -1.155828
 H        -1.349862         3.186726         1.005665
