19
Iteration:   817charge 0 multiplicity 1
 O         0.326607         0.783741         0.039022
 C        -0.848093         0.986430         0.658786
 C        -1.231355         0.900878         2.129450
 C        -2.531451         1.197646         1.328857
 O        -3.700171         1.646591         1.804814
 C        -2.183802         0.178791         0.256877
 C        -2.435323         0.789156        -1.143369
 C        -2.187737         2.245927        -0.926607
 C        -1.728727         2.280159         0.457433
 H         0.730528        -0.073975         0.174957
 H        -1.086269        -0.007765         2.665801
 H        -1.006728         1.814430         2.753679
 H        -4.479806         0.936607         1.625646
 H        -2.180867        -0.890415         0.373607
 H        -1.792077         0.404414        -1.903933
 H        -3.459532         0.600550        -1.325059
 H        -1.452502         2.525500        -1.691790
 H        -3.160735         2.882495        -0.892375
 H        -1.376765         3.157881         0.889228
