19
Iteration:  3476
 O         0.478493         0.590787         0.200232
 C        -0.769497         1.024412         0.590146
 C        -1.350467         1.026005         2.125272
 C        -2.539605         1.252357         1.271986
 O        -3.752563         1.498243         1.990374
 C        -2.085538         0.219211         0.197366
 C        -2.527460         0.772443        -1.179158
 C        -2.262251         2.295310        -1.083160
 C        -1.703007         2.305353         0.389326
 H         0.971859         0.364867         0.944951
 H        -1.332089         0.052512         2.732290
 H        -1.226600         1.879603         2.766719
 H        -4.330083         1.705764         1.320609
 H        -1.950117        -0.847659         0.411319
 H        -2.169694         0.505569        -2.205406
 H        -3.626743         0.559325        -1.379868
 H        -1.390593         2.433595        -1.682423
 H        -3.062914         3.047494        -1.266638
 H        -1.638695         3.299542         0.881860
