19
Iteration:   753charge 0 multiplicity 1
 O         0.508124         0.713076         0.311454
 C        -0.840748         0.913133         0.658027
 C        -1.200193         0.899441         2.096669
 C        -2.474591         1.309422         1.290094
 O        -3.754500         1.525433         1.770486
 C        -2.196255         0.213048         0.169669
 C        -2.636718         0.767538        -1.176816
 C        -2.302466         2.312960        -1.011831
 C        -1.658143         2.293739         0.445045
 H         0.526233         0.577263        -0.704751
 H        -1.141097        -0.059820         2.657423
 H        -0.907064         1.766760         2.847490
 H        -3.733146         1.489031         2.796888
 H        -2.376265        -0.776286         0.407281
 H        -2.031307         0.522276        -2.053923
 H        -3.621854         0.540328        -1.467955
 H        -1.621432         2.450119        -1.850667
 H        -3.100650         3.032058        -1.133322
 H        -1.339192         3.300273         0.854257
