19
Iteration:  2223
 O         0.503938         0.900309         0.075855
 C        -0.850295         0.963938         0.638942
 C        -1.291569         0.936666         2.126910
 C        -2.494685         1.244323         1.346865
 O        -3.768654         1.628504         1.817127
 C        -2.214206         0.160861         0.261484
 C        -2.641088         0.684653        -1.126091
 C        -2.081877         2.208525        -1.026307
 C        -1.725978         2.263951         0.441844
 H         1.003849         0.179816         0.368947
 H        -1.241349         0.010899         2.703433
 H        -0.999161         1.773221         2.810633
 H        -4.455728         1.025229         1.768772
 H        -2.462017        -0.847852         0.648416
 H        -2.179953         0.049007        -1.890652
 H        -3.755391         0.625272        -1.252876
 H        -1.157902         2.169893        -1.609334
 H        -2.687457         3.042392        -1.419520
 H        -1.231751         3.141733         0.926990
