19
Iteration:   574
 O         0.482810         0.698075         0.203891
 C        -0.846622         1.014526         0.610540
 C        -1.231259         1.004414         2.084416
 C        -2.472467         1.276848         1.309604
 O        -3.767891         1.454161         1.665963
 C        -2.077053         0.176070         0.247903
 C        -2.640112         0.732538        -1.050466
 C        -2.265926         2.305189        -0.909744
 C        -1.725733         2.338131         0.426542
 H         0.526588        -0.245043        -0.261020
 H        -1.354468         0.037393         2.677338
 H        -0.853499         1.793086         2.769906
 H        -3.767074         2.196916         2.335540
 H        -2.049001        -0.976859         0.490472
 H        -2.378445         0.306953        -2.022785
 H        -3.754600         0.581763        -1.101460
 H        -1.412387         2.585028        -1.561788
 H        -2.963194         3.058601        -1.351750
 H        -1.320415         3.224014         0.790334
