19
Iteration:  3397
 O         0.433106         0.715726         0.053938
 C        -0.790005         0.937206         0.656809
 C        -1.423358         0.882768         2.248609
 C        -2.516398         1.256105         1.307537
 O        -3.756379         1.675872         1.785876
 C        -1.954147         0.228362         0.192015
 C        -2.550245         0.705660        -1.070958
 C        -2.198394         2.206667        -0.987955
 C        -1.765236         2.252362         0.489482
 H         0.884478         1.494103        -0.116960
 H        -1.429525        -0.094592         2.695399
 H        -0.878215         1.654338         2.788698
 H        -4.517870         1.473787         1.185265
 H        -2.048254        -0.830025         0.376318
 H        -2.118974         0.370189        -2.003525
 H        -3.625191         0.459434        -1.187929
 H        -1.328995         2.507058        -1.523519
 H        -2.997235         2.979260        -1.092790
 H        -1.392025         3.260076         0.729506
