19
Iteration:  3929charge 0 multiplicity 1
 O         0.466573         0.816544         0.059218
 C        -0.802422         0.957138         0.635526
 C        -1.269266         0.842990         2.158136
 C        -2.506819         1.363406         1.381018
 O        -3.866886         1.677597         1.721210
 C        -2.122884         0.195693         0.253756
 C        -2.551262         0.643507        -1.098593
 C        -2.220894         2.247143        -0.966711
 C        -1.653886         2.257970         0.488885
 H         1.031323         0.126316         0.336842
 H        -1.279799        -0.100977         2.638101
 H        -0.714659         1.532169         2.857688
 H        -4.392146         1.160686         1.166503
 H        -2.465295        -0.845970         0.423497
 H        -1.894272         0.143073        -1.798191
 H        -3.612669         0.551145        -1.317234
 H        -1.331502         2.589647        -1.519868
 H        -3.118748         2.829824        -1.149003
 H        -1.289426         3.198633         0.958453
