19
Iteration:  3950charge 0 multiplicity 1
 O         0.417076         0.862190        -0.053831
 C        -0.813332         0.992966         0.753965
 C        -1.410115         0.947782         2.261341
 C        -2.544469         1.225303         1.281918
 O        -3.769075         1.619079         1.745843
 C        -2.099942         0.170307         0.319377
 C        -2.548754         0.719016        -1.117442
 C        -2.120483         2.225369        -0.983582
 C        -1.596458         2.200900         0.478559
 H         0.574652        -0.221825        -0.062067
 H        -1.401423         0.075290         2.887936
 H        -0.983870         1.778388         2.936912
 H        -4.428685         1.664411         0.957565
 H        -2.099537        -0.917447         0.437460
 H        -2.042116         0.332768        -2.025938
 H        -3.630787         0.580457        -1.167538
 H        -1.422194         2.457271        -1.833681
 H        -2.992722         2.806355        -0.778041
 H        -1.334508         3.145458         0.954128
