19
Iteration:   972
 O         0.465407         0.733109         0.018942
 C        -0.791286         0.917561         0.657425
 C        -1.257467         1.000211         2.068738
 C        -2.598736         1.255004         1.348447
 O        -3.845327         1.625144         1.910094
 C        -2.188709         0.234400         0.162013
 C        -2.436016         0.789435        -1.178064
 C        -2.176045         2.215162        -0.892895
 C        -1.696242         2.227189         0.474978
 H         0.571958        -0.238182         0.028321
 H        -1.301049         0.153879         2.600519
 H        -1.019606         1.973911         2.596735
 H        -4.201710         1.076073         2.533763
 H        -2.165230        -0.809412         0.201614
 H        -1.659479         0.279054        -1.785522
 H        -3.388561         0.641006        -1.620740
 H        -1.362471         2.711228        -1.549535
 H        -3.166345         2.757552        -1.202126
 H        -1.495025         3.234073         0.953618
