19
Iteration:  4143charge 0 multiplicity 1
 O         0.428422         0.679339         0.233888
 C        -0.872313         1.100872         0.650503
 C        -1.289124         1.000066         2.149867
 C        -2.510185         1.330075         1.283023
 O        -3.786151         1.601777         1.858622
 C        -2.142419         0.180680         0.265862
 C        -2.550786         0.570041        -1.166172
 C        -2.186463         2.191194        -1.122873
 C        -1.728989         2.327886         0.339792
 H         1.012174         1.294022         0.676416
 H        -1.085085         0.015839         2.528787
 H        -0.800852         1.779936         2.741062
 H        -3.782266         0.858058         2.448911
 H        -2.158226        -0.878046         0.520050
 H        -1.873941         0.182986        -1.919177
 H        -3.600529         0.499163        -1.378096
 H        -1.326825         2.378508        -1.821607
 H        -2.964689         2.879833        -1.499201
 H        -1.341583         3.256291         0.732107
