19
Iteration:  3213
 O         0.484203         0.683067         0.306985
 C        -0.814508         0.990854         0.660814
 C        -1.240379         0.983683         2.065596
 C        -2.557235         1.302868         1.236803
 O        -3.775097         1.426767         1.896385
 C        -2.162091         0.269419         0.220155
 C        -2.545663         0.788823        -1.154922
 C        -2.247800         2.262748        -1.051720
 C        -1.637361         2.282388         0.401542
 H         0.371357         0.194343        -0.537518
 H        -1.393888         0.035162         2.585738
 H        -0.839546         1.698266         2.804477
 H        -4.282786         2.010001         1.228367
 H        -2.365099        -0.742708         0.594606
 H        -1.936274         0.274595        -1.927989
 H        -3.588689         0.556986        -1.453613
 H        -1.486608         2.649464        -1.723552
 H        -3.109019         2.986531        -1.013727
 H        -1.248755         3.178236         0.971719
