19
Iteration:  3309charge 0 multiplicity 1
 O         0.432646         0.579874         0.274545
 C        -0.776708         1.057310         0.600204
 C        -1.330103         0.980139         2.116677
 C        -2.555087         1.244454         1.313396
 O        -3.743975         1.518814         1.929047
 C        -2.002307         0.202316         0.180762
 C        -2.571136         0.718643        -1.192166
 C        -2.209776         2.297343        -1.018152
 C        -1.742233         2.383413         0.441166
 H         0.677416         0.945072        -0.540891
 H        -1.348084         0.009055         2.567737
 H        -0.941474         1.732553         2.837374
 H        -4.456541         1.652566         1.186592
 H        -2.035307        -0.862345         0.426233
 H        -2.067033         0.335823        -2.071523
 H        -3.648286         0.518976        -1.414171
 H        -1.421811         2.445119        -1.739737
 H        -3.112976         2.865460        -1.387479
 H        -1.411593         3.341743         0.902756
