19
Iteration:   207charge 0 multiplicity 1
 O         0.441708         0.815482         0.072372
 C        -0.842907         0.991583         0.624815
 C        -1.249244         0.907256         2.168267
 C        -2.543118         1.304489         1.353272
 O        -3.816213         1.427309         1.850895
 C        -2.250008         0.219025         0.231574
 C        -2.564686         0.742813        -1.165774
 C        -2.054122         2.233961        -1.044189
 C        -1.670909         2.290327         0.419349
 H         0.949493         0.357328         0.710592
 H        -1.325388        -0.074289         2.671983
 H        -0.818399         1.686981         2.838369
 H        -4.073520         2.333585         2.179486
 H        -2.397366        -0.791707         0.506110
 H        -2.117736         0.131086        -1.964845
 H        -3.644582         0.735652        -1.415756
 H        -1.197882         2.524192        -1.717306
 H        -2.933781         2.909271        -1.140647
 H        -1.350965         3.198192         0.815698
