19
Iteration:  3846
 O         0.415001         0.772408         0.161646
 C        -0.875376         1.005459         0.647989
 C        -1.224380         0.885474         2.147705
 C        -2.493900         1.270914         1.350905
 O        -3.812748         1.454329         1.717751
 C        -2.216912         0.286483         0.330387
 C        -2.570872         0.744138        -1.157190
 C        -2.186469         2.255600        -1.044071
 C        -1.602986         2.310516         0.392912
 H         0.581304        -0.044004         0.662102
 H        -1.228727        -0.201484         2.529503
 H        -0.840487         1.694438         2.756976
 H        -3.697782         2.233540         2.380371
 H        -2.151430        -0.796968         0.488205
 H        -1.898802         0.178967        -1.863736
 H        -3.532945         0.626308        -1.726537
 H        -1.480965         2.624166        -1.784702
 H        -3.116344         2.907344        -1.193808
 H        -1.223849         3.219074         0.962620
