19
Iteration:  4636charge 0 multiplicity 1
 O         0.529070         0.820235         0.169935
 C        -0.793791         1.049809         0.651917
 C        -1.278851         1.116311         2.189936
 C        -2.479323         1.409346         1.359949
 O        -3.920813         1.493887         1.711347
 C        -2.161599         0.218258         0.406633
 C        -2.551251         0.481358        -1.005949
 C        -2.207603         2.037090        -1.103224
 C        -1.657348         2.258246         0.258289
 H         0.565102         0.908398        -0.817141
 H        -1.495269         0.218467         2.814049
 H        -0.797600         1.828556         2.938674
 H        -3.993097         2.460095         1.777588
 H        -2.203240        -0.835421         0.736454
 H        -1.844378         0.060927        -1.663325
 H        -3.580585         0.301864        -1.134002
 H        -1.469930         2.347472        -1.853462
 H        -3.058290         2.804758        -1.322700
 H        -1.298169         3.201356         0.645428
