19
Iteration:  2248charge 0 multiplicity 1
 O         0.337254         0.849505         0.066491
 C        -0.874347         0.963691         0.727741
 C        -1.137058         1.003094         2.206790
 C        -2.533611         1.279065         1.343954
 O        -3.880697         1.603974         1.892833
 C        -2.167512         0.213175         0.178771
 C        -2.531746         0.723800        -1.182056
 C        -2.045775         2.170434        -1.070856
 C        -1.634521         2.211704         0.382811
 H         0.873777        -0.021004         0.151042
 H        -1.211846         0.106515         2.913190
 H        -0.828389         1.831903         2.854554
 H        -4.512992         0.874352         1.821470
 H        -2.274031        -0.867625         0.376950
 H        -2.078686         0.067545        -1.930026
 H        -3.564306         0.738172        -1.253828
 H        -1.333900         2.394485        -1.838218
 H        -2.956410         2.831906        -1.034805
 H        -1.325820         3.193157         0.852895
