19
Iteration:  2220charge 0 multiplicity 1
 O         0.489139         0.909098         0.095064
 C        -0.876405         0.964587         0.606596
 C        -1.287567         0.919476         2.132823
 C        -2.471748         1.235045         1.378660
 O        -3.764425         1.639644         1.805472
 C        -2.202284         0.182198         0.240194
 C        -2.629248         0.681845        -1.071437
 C        -2.099779         2.203512        -1.036388
 C        -1.702609         2.270446         0.431128
 H         1.084898         0.067311         0.436200
 H        -1.364079        -0.048940         2.591385
 H        -1.056366         1.773653         2.778958
 H        -4.493282         0.904975         1.771677
 H        -2.416777        -0.830034         0.592367
 H        -2.208319         0.041962        -1.885704
 H        -3.815827         0.595566        -1.249333
 H        -1.154384         2.280593        -1.740914
 H        -2.655259         3.006551        -1.476061
 H        -1.277861         3.130843         0.902671
