19
Iteration:  1799charge 0 multiplicity 1
 O         0.384403         0.797681         0.078937
 C        -0.807911         1.047138         0.715568
 C        -1.251380         0.914941         2.113599
 C        -2.498657         1.326479         1.362837
 O        -3.831985         1.677671         1.859057
 C        -2.214484         0.247044         0.254744
 C        -2.401458         0.614752        -1.187896
 C        -2.221162         2.139013        -1.078883
 C        -1.663617         2.288585         0.379987
 H         0.999992         0.062511         0.458680
 H        -1.348796        -0.155490         2.403949
 H        -0.907866         1.537960         2.882497
 H        -3.987577         1.041250         2.668062
 H        -2.311606        -0.779468         0.390398
 H        -1.825647         0.035911        -1.925397
 H        -3.482067         0.502963        -1.376298
 H        -1.699368         2.692569        -1.800512
 H        -3.246635         2.536209        -0.999851
 H        -1.326732         3.173001         0.874387
