19
Iteration:  2921
 O         0.466967         0.703039         0.291637
 C        -0.839440         1.018964         0.636124
 C        -1.274888         0.989675         2.169836
 C        -2.516451         1.295428         1.300282
 O        -3.833109         1.613485         1.786895
 C        -1.968733         0.186646         0.195527
 C        -2.658606         0.686637        -1.059778
 C        -2.225113         2.184588        -1.081854
 C        -1.678329         2.340822         0.359254
 H         0.740158         0.776792        -0.672016
 H        -1.279799        -0.071405         2.357451
 H        -0.767418         1.694323         2.838143
 H        -3.990729         0.897787         2.352559
 H        -1.871850        -0.897850         0.341326
 H        -2.372468         0.292731        -2.084904
 H        -3.732546         0.634226        -0.972197
 H        -1.437394         2.267054        -1.869980
 H        -3.143229         2.841206        -1.284611
 H        -1.347699         3.246478         0.822695
