19
Iteration:  4948
 O         0.499969         0.783146         0.338808
 C        -0.824020         1.077253         0.662635
 C        -1.298698         1.101167         2.145935
 C        -2.468790         1.335125         1.323179
 O        -3.749320         1.643063         1.829002
 C        -2.039327         0.247482         0.355504
 C        -2.586773         0.544062        -1.110521
 C        -2.293632         2.035163        -1.193284
 C        -1.777983         2.307898         0.227178
 H         0.422232        -0.012870        -0.148853
 H        -1.293410         0.200327         2.711357
 H        -0.888727         2.027822         2.630973
 H        -4.208133         0.796843         1.977529
 H        -1.896883        -0.786268         0.754433
 H        -1.934083         0.000767        -1.801006
 H        -3.546176         0.298543        -1.496202
 H        -1.483999         2.276742        -1.965351
 H        -3.225374         2.555561        -1.534473
 H        -1.481041         3.233535         0.578973
