19
Iteration:  4400
 O         0.554605         0.703932         0.379789
 C        -0.822317         1.078056         0.624163
 C        -1.167695         1.138518         2.085857
 C        -2.561926         1.420481         1.343370
 O        -3.872431         1.499933         1.883079
 C        -2.111167         0.248919         0.383588
 C        -2.561901         0.534164        -1.073763
 C        -2.304042         2.087883        -1.205583
 C        -1.663327         2.309387         0.187980
 H         0.671393         0.413072        -0.465323
 H        -0.976742         0.141739         2.605220
 H        -0.838447         1.881285         2.777256
 H        -4.454149         1.710038         1.153214
 H        -2.219648        -0.825411         0.556011
 H        -2.019962        -0.196318        -1.696153
 H        -3.634988         0.386528        -0.935106
 H        -1.616726         2.492948        -2.047805
 H        -3.207989         2.726062        -1.319319
 H        -1.305422         3.373543         0.345239
