19
Iteration:  1706
 O         0.508488         0.827713         0.205463
 C        -0.722853         0.971486         0.703235
 C        -1.182288         0.953768         2.174364
 C        -2.516097         1.277972         1.294400
 O        -3.796472         1.629755         1.650691
 C        -2.068943         0.199043         0.253463
 C        -2.738327         0.695912        -1.046331
 C        -2.306751         2.228363        -1.032419
 C        -1.632252         2.227500         0.379310
 H         0.665119        -0.096396         0.124651
 H        -1.144225         0.049179         2.677825
 H        -0.890700         1.826067         2.829603
 H        -4.370974         0.930896         1.753717
 H        -2.167520        -0.919586         0.631022
 H        -2.551288         0.112765        -1.975021
 H        -3.838512         0.600520        -0.904771
 H        -1.599484         2.485326        -1.874527
 H        -3.114755         2.954823        -1.140178
 H        -1.360315         3.272607         0.773805
