19
Iteration:  3505charge 0 multiplicity 1
 O         0.425327         0.815480         0.153590
 C        -0.834796         0.853502         0.599574
 C        -1.214877         0.823244         2.147682
 C        -2.499647         1.342010         1.305947
 O        -3.813675         1.560462         1.854410
 C        -2.235219         0.294418         0.227135
 C        -2.493010         0.710982        -1.162777
 C        -2.263893         2.198699        -1.012698
 C        -1.606878         2.262139         0.456904
 H         1.073224         0.986837         0.866374
 H        -1.304190        -0.016752         2.827062
 H        -0.777191         1.720432         2.691466
 H        -4.214082         1.900540         0.989229
 H        -2.449009        -0.728408         0.521365
 H        -1.855153         0.343537        -1.947954
 H        -3.533510         0.424615        -1.471246
 H        -1.524331         2.541327        -1.748932
 H        -3.144907         2.903915        -1.082480
 H        -1.279100         3.257044         0.798233
