19
Iteration:   935charge 0 multiplicity 1
 O         0.404489         0.838491         0.059104
 C        -0.835325         0.945920         0.691042
 C        -1.271837         0.825304         2.162029
 C        -2.469958         1.312571         1.338052
 O        -3.780870         1.603887         1.730310
 C        -2.166283         0.255942         0.224738
 C        -2.506632         0.738179        -1.124887
 C        -2.238406         2.210949        -0.984998
 C        -1.639732         2.317855         0.469007
 H         0.617739        -0.050988        -0.023900
 H        -1.592466        -0.222821         2.494434
 H        -0.879212         1.348239         3.004160
 H        -3.880348         1.241429         2.644139
 H        -2.294876        -0.880736         0.398617
 H        -1.854530         0.297802        -1.907975
 H        -3.642747         0.502858        -1.370119
 H        -1.544953         2.605332        -1.704139
 H        -3.169948         2.782401        -0.958276
 H        -1.196936         3.204521         0.795167
