19
Iteration:  3168charge 0 multiplicity 1
 O         0.450946         0.654794         0.226578
 C        -0.794631         1.004543         0.690121
 C        -1.267030         0.903927         2.088881
 C        -2.593901         1.265311         1.296137
 O        -3.817124         1.511884         1.808241
 C        -2.130441         0.221167         0.233788
 C        -2.481830         0.766349        -1.146084
 C        -2.210352         2.245503        -0.984585
 C        -1.696364         2.329915         0.374752
 H         0.765541         0.842737        -0.657485
 H        -1.014416        -0.015454         2.574686
 H        -0.977005         1.766713         2.738434
 H        -3.848090         2.455014         2.232981
 H        -2.199431        -0.851186         0.495514
 H        -1.853977         0.240558        -1.874643
 H        -3.551141         0.547557        -1.413269
 H        -1.592197         2.619735        -1.807070
 H        -3.194697         2.763499        -1.118124
 H        -1.582207         3.286113         0.950727
