19
Iteration:  1936
 O         0.375642         0.882219         0.086358
 C        -0.842436         0.930565         0.704212
 C        -1.239239         0.960315         2.214271
 C        -2.561935         1.275243         1.286770
 O        -3.736732         1.705442         1.916997
 C        -2.233144         0.152088         0.205585
 C        -2.424938         0.673192        -1.233485
 C        -2.133214         2.176348        -1.090365
 C        -1.788979         2.241155         0.403694
 H         0.855172         0.062885         0.191491
 H        -1.375415        -0.081555         2.721365
 H        -0.632780         1.772515         2.839388
 H        -4.032459         0.968776         2.572366
 H        -2.464603        -0.922749         0.475192
 H        -1.704751         0.125944        -1.873809
 H        -3.502690         0.477105        -1.483205
 H        -1.194981         2.603556        -1.703418
 H        -3.049127         2.763141        -1.379450
 H        -1.438860         3.109453         1.003964
