19
Iteration:    82charge 0 multiplicity 1
 O         0.554686         0.767754         0.176322
 C        -0.754238         0.931826         0.714536
 C        -1.184991         0.844542         2.137412
 C        -2.554802         1.280203         1.346558
 O        -3.898697         1.484308         1.799251
 C        -2.145668         0.234701         0.178894
 C        -2.570356         0.838507        -1.175451
 C        -2.231155         2.281634        -1.030317
 C        -1.712797         2.265289         0.446457
 H         0.532873        -0.085653        -0.217759
 H        -1.294195        -0.113439         2.659293
 H        -0.698161         1.630315         2.755184
 H        -3.970459         2.486162         1.879317
 H        -2.283535        -0.875532         0.454312
 H        -2.149411         0.315015        -2.047037
 H        -3.650884         0.655823        -1.329258
 H        -1.471970         2.808129        -1.787419
 H        -3.156769         2.935404        -1.068246
 H        -1.501746         3.258840         0.988303
