19
Iteration:   790
 O         0.501556         0.742071         0.049864
 C        -0.773806         0.967028         0.624197
 C        -1.264542         0.866555         2.183091
 C        -2.570950         1.333961         1.355123
 O        -3.887398         1.713166         1.887125
 C        -2.072852         0.216748         0.182600
 C        -2.471215         0.734279        -1.244925
 C        -2.269475         2.236537        -0.973815
 C        -1.709051         2.266317         0.510180
 H         0.496874        -0.109465        -0.396928
 H        -1.288708        -0.176966         2.586036
 H        -0.866707         1.625899         2.816877
 H        -4.206354         0.736638         2.203092
 H        -2.198155        -0.924439         0.420495
 H        -1.725401         0.436616        -2.049954
 H        -3.536133         0.296792        -1.314452
 H        -1.524124         2.487663        -1.757765
 H        -3.102872         2.884174        -0.910629
 H        -1.292190         3.191784         1.083547
