19
Iteration:   260charge 0 multiplicity 1
 O         0.527007         0.701383         0.135697
 C        -0.730227         1.058048         0.663658
 C        -1.330570         0.993019         2.167047
 C        -2.514294         1.154709         1.241417
 O        -3.829964         1.590108         1.695417
 C        -2.012423         0.195867         0.209704
 C        -2.617549         0.762552        -1.107551
 C        -2.298840         2.278885        -0.957152
 C        -1.701350         2.228991         0.494398
 H         0.542106        -0.137696        -0.225313
 H        -1.161876         0.015569         2.677624
 H        -1.162510         1.773167         2.901067
 H        -3.681021         2.136892         2.447272
 H        -2.180805        -0.866839         0.416526
 H        -2.168977         0.230815        -1.950133
 H        -3.705435         0.553618        -1.113145
 H        -1.478201         2.640004        -1.703897
 H        -3.257777         2.880849        -0.924023
 H        -1.430776         3.218011         0.940390
