19
Iteration:  1775charge 0 multiplicity 1
 O         0.374132         0.797019         0.018820
 C        -0.883287         0.958176         0.618317
 C        -1.303337         1.071986         2.159941
 C        -2.525911         1.290696         1.339696
 O        -3.754300         1.661840         1.877273
 C        -2.152307         0.165133         0.268756
 C        -2.409570         0.662508        -1.229584
 C        -2.176327         2.208278        -0.978369
 C        -1.803756         2.184343         0.406285
 H         0.804966        -0.068685         0.283678
 H        -1.376216         0.173589         2.732782
 H        -0.996171         1.886951         2.706090
 H        -3.830848         1.126405         2.796145
 H        -2.245000        -0.824208         0.668348
 H        -1.548018         0.364736        -1.838711
 H        -3.284170         0.245701        -1.679913
 H        -1.259248         2.428366        -1.367910
 H        -2.847443         2.991955        -1.285154
 H        -1.290737         3.023320         0.926732
