19
Iteration:  3461charge 0 multiplicity 1
 O         0.510642         0.557882         0.173582
 C        -0.802070         0.998439         0.718536
 C        -1.359777         1.038522         2.155981
 C        -2.562656         1.316749         1.228129
 O        -3.736692         1.429111         1.981196
 C        -2.048673         0.299229         0.113756
 C        -2.595962         0.785276        -1.188357
 C        -2.186854         2.258511        -1.070206
 C        -1.770298         2.378581         0.377447
 H         1.085621         0.285498         0.926367
 H        -1.316517         0.094727         2.730065
 H        -0.823826         1.912721         2.717543
 H        -4.622853         1.510904         1.393277
 H        -2.160528        -0.781316         0.310432
 H        -2.061916         0.087716        -1.838295
 H        -3.689995         0.494351        -1.103671
 H        -1.490053         2.694790        -1.815964
 H        -3.120086         2.897687        -1.278976
 H        -1.263576         3.275728         0.771227
