19
Iteration:  4802
 O         0.499799         0.800030         0.233092
 C        -0.795069         1.053788         0.658864
 C        -1.258802         1.187603         2.178120
 C        -2.492648         1.375581         1.292790
 O        -3.861390         1.581273         1.880235
 C        -2.148232         0.242482         0.364952
 C        -2.528237         0.522597        -1.056216
 C        -2.251080         2.037685        -1.208309
 C        -1.661750         2.259103         0.211178
 H         0.883225         0.007155         0.614122
 H        -1.118556         0.112867         2.573294
 H        -0.814733         2.037590         2.694141
 H        -4.465704         0.847840         1.613658
 H        -2.332876        -0.826972         0.511037
 H        -1.988457        -0.137715        -1.774095
 H        -3.581653         0.356021        -1.092630
 H        -1.602487         2.495236        -2.031313
 H        -3.109864         2.791369        -1.494592
 H        -1.450827         3.254750         0.592107
