19
Iteration:  1820charge 0 multiplicity 1
 O         0.508288         0.810307         0.168133
 C        -0.838018         0.963010         0.642629
 C        -1.258229         0.896775         2.141380
 C        -2.495072         1.332846         1.277933
 O        -3.754338         1.689013         1.758545
 C        -2.136236         0.203942         0.262615
 C        -2.603948         0.624012        -1.132942
 C        -2.334856         2.196733        -0.985361
 C        -1.662054         2.295112         0.387443
 H         0.866145         0.038485         0.649592
 H        -1.250688        -0.049982         2.593198
 H        -0.840634         1.667623         2.662289
 H        -4.105971         0.813752         2.172610
 H        -2.201344        -0.822659         0.548621
 H        -1.794752         0.392203        -1.813194
 H        -3.592836         0.380263        -1.487579
 H        -1.695439         2.535247        -1.719534
 H        -3.225113         2.827891        -0.977395
 H        -1.280359         3.264937         0.724853
