19
Iteration:  3887
 O         0.626151         0.655083         0.211831
 C        -0.768962         0.971364         0.638858
 C        -1.374575         1.008835         2.133099
 C        -2.563777         1.251063         1.260454
 O        -3.757421         1.597910         1.868013
 C        -2.195331         0.201513         0.131574
 C        -2.595509         0.744077        -1.224061
 C        -2.268681         2.318724        -1.034896
 C        -1.678173         2.263497         0.394696
 H         1.027328         0.157155         1.052296
 H        -1.458820         0.093121         2.741456
 H        -1.106413         1.882882         2.730017
 H        -3.929777         0.980542         2.624653
 H        -2.201694        -0.883188         0.450510
 H        -1.928263         0.337882        -1.944694
 H        -3.712343         0.512147        -1.271792
 H        -1.698113         2.704894        -1.873069
 H        -3.134128         3.002580        -1.051268
 H        -1.411354         3.230750         0.967115
