19
Iteration:   832
 O         0.356186         0.834121         0.029347
 C        -0.830918         0.911177         0.669544
 C        -1.255186         0.916582         2.153739
 C        -2.505031         1.342944         1.305766
 O        -3.766135         1.555399         1.818056
 C        -2.193547         0.243841         0.234364
 C        -2.562576         0.696480        -1.141848
 C        -2.208114         2.295785        -0.959185
 C        -1.555501         2.241345         0.456294
 H         0.778897         0.080659         0.621853
 H        -1.359909        -0.172673         2.551933
 H        -0.712030         1.693008         2.813489
 H        -4.281430         0.760027         1.635721
 H        -2.415102        -0.764367         0.600014
 H        -1.785245         0.233857        -1.797877
 H        -3.567922         0.564663        -1.576199
 H        -1.517730         2.718642        -1.702616
 H        -3.093969         2.861626        -1.061452
 H        -1.157117         3.197939         1.037712
