19
Iteration:  3334
 O         0.473747         0.597000         0.274641
 C        -0.788703         0.998731         0.689141
 C        -1.281598         0.979019         2.143872
 C        -2.590070         1.296934         1.269445
 O        -3.747183         1.465999         1.954885
 C        -2.124017         0.224424         0.215632
 C        -2.531474         0.725577        -1.240535
 C        -2.222008         2.334578        -1.056417
 C        -1.695223         2.294094         0.333029
 H         0.819845         1.257005        -0.297327
 H        -1.239295         0.062446         2.745024
 H        -0.918123         1.817968         2.721500
 H        -4.406493         1.969203         1.478478
 H        -2.408326        -0.786461         0.519762
 H        -1.869501         0.264881        -2.019127
 H        -3.557762         0.499553        -1.547563
 H        -1.647695         2.731184        -1.880416
 H        -3.199401         2.819739        -1.071829
 H        -1.395355         3.275582         0.752000
