19
Iteration:  4092charge 0 multiplicity 1
 O         0.431314         0.699234         0.156715
 C        -0.772683         1.009423         0.689609
 C        -1.319240         0.984753         2.165218
 C        -2.477196         1.335590         1.322141
 O        -3.842235         1.502437         1.702075
 C        -2.107042         0.264700         0.343817
 C        -2.541977         0.672591        -1.059897
 C        -2.245040         2.160951        -1.011966
 C        -1.586594         2.245430         0.394127
 H         0.496245         1.290360        -0.710226
 H        -1.385038         0.021584         2.704168
 H        -1.041563         1.827111         2.906622
 H        -4.132927         2.277740         1.153926
 H        -2.200021        -0.824090         0.458245
 H        -1.841794         0.196414        -1.864557
 H        -3.608484         0.513409        -1.251875
 H        -1.603622         2.565062        -1.839433
 H        -3.172156         2.740385        -0.853714
 H        -1.334878         3.245896         0.756633
