19
Iteration:  1415charge 0 multiplicity 1
 O         0.435429         0.677247         0.038784
 C        -0.784589         1.044289         0.593428
 C        -1.274466         0.921764         2.197664
 C        -2.510654         1.340910         1.372748
 O        -3.812514         1.604047         1.791233
 C        -2.112236         0.283461         0.297681
 C        -2.522767         0.641898        -1.083894
 C        -2.256673         2.216170        -1.081597
 C        -1.708708         2.309442         0.398906
 H         1.105643         0.795586         0.672893
 H        -1.357792        -0.114701         2.663332
 H        -0.845168         1.597007         2.917750
 H        -4.186454         0.739404         2.281298
 H        -2.149130        -0.794479         0.570511
 H        -1.907073         0.194833        -1.906925
 H        -3.611852         0.469925        -1.267899
 H        -1.442872         2.613660        -1.741939
 H        -3.180817         2.853796        -1.258468
 H        -1.352072         3.228085         0.750894
