19
Iteration:  1769
 O         0.359999         0.796168         0.026003
 C        -0.869434         0.970593         0.638959
 C        -1.297606         1.108650         2.123350
 C        -2.530111         1.274865         1.350462
 O        -3.753157         1.650510         1.881832
 C        -2.179841         0.157865         0.255150
 C        -2.399007         0.639515        -1.236527
 C        -2.156148         2.186973        -0.967211
 C        -1.779161         2.188671         0.449624
 H         0.695506        -0.038578         0.218344
 H        -1.316647         0.103920         2.736122
 H        -0.990165         2.066524         2.690161
 H        -3.849859         1.192916         2.650385
 H        -2.277194        -0.935818         0.496559
 H        -1.581349         0.300802        -1.893779
 H        -3.432997         0.425406        -1.650905
 H        -1.152330         2.556024        -1.481163
 H        -2.913138         2.963311        -1.260005
 H        -1.363131         3.073664         0.907208
