19
Iteration:  2513charge 0 multiplicity 1
 O         0.540819         0.668825         0.238931
 C        -0.813216         0.989702         0.676004
 C        -1.257763         0.926276         2.057504
 C        -2.531427         1.378435         1.249151
 O        -3.821438         1.707280         1.785412
 C        -2.046989         0.233266         0.230774
 C        -2.533559         0.618290        -1.116393
 C        -2.330226         2.201572        -1.005094
 C        -1.720322         2.317449         0.480320
 H         0.592937         0.595018        -0.796176
 H        -1.293805        -0.188761         2.282928
 H        -0.800155         1.641824         2.774768
 H        -4.254601         0.845398         2.273589
 H        -2.213624        -0.803253         0.482327
 H        -1.928226         0.193706        -2.050033
 H        -3.529613         0.222583        -1.222641
 H        -1.627684         2.738868        -1.691365
 H        -3.259898         2.743817        -0.943023
 H        -1.388558         3.196469         0.948195
