19
Iteration:  1958charge 0 multiplicity 1
 O         0.410673         0.836189         0.122589
 C        -0.855943         1.011552         0.613098
 C        -1.310500         0.855131         2.095650
 C        -2.529258         1.369927         1.417681
 O        -3.848802         1.705013         1.891695
 C        -2.109875         0.190728         0.218720
 C        -2.455569         0.606465        -1.205452
 C        -2.252209         2.145876        -1.039001
 C        -1.601771         2.299611         0.358623
 H         0.842625        -0.048128         0.309875
 H        -1.369785        -0.231914         2.484135
 H        -0.899746         1.687190         2.845792
 H        -4.143865         1.049697         2.490559
 H        -2.059504        -0.878829         0.586939
 H        -1.623874         0.163906        -1.778686
 H        -3.480055         0.352547        -1.554245
 H        -1.466808         2.701734        -1.748677
 H        -3.161841         2.773459        -0.908320
 H        -1.250752         3.208175         0.836752
