19
Iteration:   595charge 0 multiplicity 1
 O         0.494969         0.682654         0.247617
 C        -0.772961         0.995268         0.694607
 C        -1.257846         0.981753         2.142588
 C        -2.493094         1.319591         1.311826
 O        -3.801036         1.438108         1.823743
 C        -2.129506         0.278848         0.171752
 C        -2.614003         0.780789        -1.177204
 C        -2.314927         2.249886        -1.081218
 C        -1.610855         2.285696         0.368112
 H         0.577126        -0.192215        -0.056083
 H        -1.149907         0.031372         2.740536
 H        -0.848925         1.810359         2.744023
 H        -3.709698         1.982389         2.699885
 H        -2.358267        -0.861371         0.375327
 H        -2.144797         0.276895        -2.045340
 H        -3.693306         0.527504        -1.352694
 H        -1.789845         2.801133        -1.913082
 H        -3.245200         2.932307        -0.965865
 H        -1.416809         3.227394         0.775280
