19
Iteration:  1351
 O         0.558536         0.711647         0.224433
 C        -0.758571         0.979851         0.674786
 C        -1.132504         0.997786         2.173767
 C        -2.477202         1.267295         1.293695
 O        -3.811496         1.615644         1.659444
 C        -2.204254         0.200171         0.265042
 C        -2.719388         0.783255        -1.141679
 C        -2.309311         2.225674        -0.963194
 C        -1.658097         2.154488         0.387697
 H         0.990269         1.477238        -0.240222
 H        -1.112104         0.103358         2.823324
 H        -0.836812         1.821316         2.695941
 H        -4.202231         0.823331         2.176878
 H        -2.372307        -0.938128         0.447270
 H        -2.257269         0.298118        -1.955215
 H        -3.794401         0.594462        -1.114041
 H        -1.649122         2.541756        -1.775178
 H        -3.222802         2.834741        -0.992028
 H        -1.377744         3.077223         0.817213
