19
Iteration:  4527
 O         0.609922         0.611701         0.409687
 C        -0.798944         1.003306         0.674478
 C        -1.201241         1.270892         2.120617
 C        -2.522128         1.395142         1.286886
 O        -3.851087         1.495641         1.741630
 C        -2.093608         0.209929         0.292967
 C        -2.587202         0.552919        -1.071034
 C        -2.317436         2.091557        -1.126559
 C        -1.783001         2.328083         0.235566
 H         0.673672         0.811210        -0.470216
 H        -1.003013         0.309646         2.606882
 H        -0.776350         2.276660         2.434104
 H        -3.729784         2.041593         2.570681
 H        -2.026892        -0.888860         0.454229
 H        -2.157299        -0.094942        -1.893956
 H        -3.654089         0.425541        -1.248928
 H        -1.794538         2.547654        -1.972325
 H        -3.390858         2.505802        -1.216212
 H        -1.635526         3.291174         0.677567
