19
Iteration:   889charge 0 multiplicity 1
 O         0.415280         0.820608         0.245476
 C        -0.860526         0.938253         0.614557
 C        -1.218980         0.946109         2.150924
 C        -2.444896         1.248453         1.298518
 O        -3.668681         1.596331         1.720010
 C        -2.094831         0.170035         0.106223
 C        -2.706867         0.842206        -1.127578
 C        -2.254806         2.242033        -0.966404
 C        -1.683972         2.210315         0.446165
 H         0.567776        -0.010894         0.618339
 H        -0.932931        -0.037620         2.729413
 H        -0.764199         1.779567         2.677229
 H        -4.034290         0.790839         2.304550
 H        -2.350551        -0.931445         0.311877
 H        -2.430673         0.425582        -2.127961
 H        -3.868834         0.873349        -1.074574
 H        -1.431460         2.416801        -1.654298
 H        -3.079442         2.850824        -1.159079
 H        -1.436782         3.185856         0.961477
