19
Iteration:  1168
 O         0.465377         0.651095         0.176157
 C        -0.803747         1.002141         0.654576
 C        -1.261306         0.827079         2.058534
 C        -2.547927         1.331090         1.354632
 O        -3.880346         1.643658         1.848619
 C        -2.066761         0.282273         0.213852
 C        -2.558722         0.714332        -1.128567
 C        -2.245225         2.228889        -1.001516
 C        -1.620779         2.303845         0.407827
 H         0.818853         1.353616        -0.341899
 H        -1.194555        -0.128758         2.446551
 H        -0.856015         1.457858         2.932274
 H        -4.284742         0.914335         2.273599
 H        -2.001711        -0.803742         0.317483
 H        -2.044923         0.182484        -1.997582
 H        -3.684212         0.582894        -1.263299
 H        -1.452716         2.535184        -1.701035
 H        -3.175493         2.790380        -1.176376
 H        -1.232716         3.298928         0.716033
