19
Iteration:  3279
 O         0.510460         0.813426         0.218473
 C        -0.800544         0.928331         0.662636
 C        -1.244118         0.936647         2.107660
 C        -2.506566         1.266355         1.371578
 O        -3.845611         1.519892         1.799707
 C        -2.267331         0.240951         0.274596
 C        -2.609736         0.792381        -1.147286
 C        -2.173703         2.228608        -0.986925
 C        -1.551461         2.256271         0.428235
 H         0.723724         0.610932        -0.747554
 H        -1.388643        -0.007952         2.632923
 H        -0.782691         1.699560         2.729012
 H        -4.384700         1.371423         1.099138
 H        -2.612868        -0.803107         0.424532
 H        -2.000240         0.174035        -1.850116
 H        -3.613582         0.691092        -1.591791
 H        -1.526520         2.435648        -1.840327
 H        -3.148937         2.709059        -1.188180
 H        -1.056967         3.168209         0.841620
