19
Iteration:  4971
 O         0.525708         0.872762         0.273156
 C        -0.776809         1.019350         0.734126
 C        -1.235989         1.160240         2.126778
 C        -2.488522         1.363197         1.285850
 O        -3.833638         1.640125         1.794481
 C        -2.097489         0.168984         0.351748
 C        -2.592882         0.495444        -1.110020
 C        -2.246521         2.037969        -1.081731
 C        -1.698231         2.258034         0.243422
 H         0.608386        -0.045444        -0.120230
 H        -1.156937         0.253008         2.682491
 H        -0.949892         2.115142         2.603702
 H        -4.401960         0.953678         1.426590
 H        -2.504257        -0.816191         0.686469
 H        -2.203673         0.012339        -1.976939
 H        -3.680499         0.252109        -1.266794
 H        -1.630768         2.347148        -1.963174
 H        -3.145241         2.681981        -1.118803
 H        -1.361437         3.188410         0.681297
