19
Iteration:  2286
 O         0.446695         0.691020         0.085281
 C        -0.721536         0.975761         0.726693
 C        -1.225686         0.950224         2.170825
 C        -2.520519         1.312665         1.309984
 O        -3.830954         1.598507         1.793382
 C        -2.137281         0.289451         0.247463
 C        -2.474121         0.676720        -1.167917
 C        -2.242676         2.193558        -1.003695
 C        -1.724678         2.402612         0.420607
 H         0.462017        -0.216288         0.189861
 H        -1.306838        -0.030858         2.564793
 H        -0.895035         1.711647         2.881474
 H        -4.071998         0.807846         2.196325
 H        -2.471916        -0.740967         0.421218
 H        -1.923021         0.121648        -1.930981
 H        -3.597307         0.445399        -1.402986
 H        -1.765267         2.768199        -1.848006
 H        -3.215763         2.661832        -0.980427
 H        -1.501368         3.410900         0.710441
