19
Iteration:  3089
 O         0.479753         0.649080         0.322765
 C        -0.784924         1.012690         0.663929
 C        -1.193190         0.944941         2.148273
 C        -2.518151         1.303035         1.288085
 O        -3.806661         1.567266         1.744063
 C        -2.091327         0.253364         0.143277
 C        -2.625772         0.755905        -1.136115
 C        -2.205047         2.231863        -1.055872
 C        -1.792347         2.303311         0.418236
 H         0.781693         0.980612        -0.575641
 H        -1.269849        -0.006406         2.718447
 H        -0.707054         1.695237         2.759280
 H        -3.860474         0.950070         2.541964
 H        -2.207239        -0.828072         0.353221
 H        -2.376941         0.225903        -2.075641
 H        -3.746590         0.621510        -1.080784
 H        -1.357031         2.410794        -1.716255
 H        -3.209737         2.815957        -1.265018
 H        -1.286271         3.186303         0.945446
