19
Iteration:  1391charge 0 multiplicity 1
 O         0.574578         0.652839         0.146975
 C        -0.719885         0.975609         0.694854
 C        -1.249919         0.938184         2.141634
 C        -2.482883         1.366010         1.262009
 O        -3.788347         1.615412         1.739399
 C        -2.070243         0.234473         0.227278
 C        -2.732501         0.706613        -1.047884
 C        -2.343357         2.169776        -1.024589
 C        -1.710284         2.287297         0.405849
 H         1.160163         1.344652         0.519740
 H        -1.347001        -0.063862         2.622452
 H        -0.930094         1.759791         2.980477
 H        -4.205072         0.732345         1.761618
 H        -2.125099        -0.780012         0.493767
 H        -2.385825         0.301756        -2.091105
 H        -3.835693         0.704286        -1.005155
 H        -1.574014         2.496483        -1.775790
 H        -3.153921         2.940535        -1.071698
 H        -1.467295         3.307114         0.778959
