19
Iteration:  3068
 O         0.526820         0.611026         0.321080
 C        -0.822771         1.029605         0.639020
 C        -1.302217         0.953771         2.077088
 C        -2.499716         1.246012         1.318655
 O        -3.843551         1.582320         1.880328
 C        -2.085793         0.232390         0.205532
 C        -2.592820         0.754347        -1.139879
 C        -2.211018         2.278363        -1.061228
 C        -1.696631         2.367187         0.325619
 H         0.567560         0.720406        -0.605692
 H        -1.101052        -0.054621         2.414174
 H        -0.977182         1.691258         2.781839
 H        -4.144189         0.604249         2.079171
 H        -1.838522        -0.797938         0.488705
 H        -2.157946         0.180769        -1.958362
 H        -3.687711         0.543657        -1.180908
 H        -1.439164         2.452949        -1.776988
 H        -3.078006         2.971401        -1.224953
 H        -1.542348         3.430833         0.703057
