19
Iteration:  2832
 O         0.456414         0.610096         0.239416
 C        -0.795614         1.009299         0.617923
 C        -1.224067         1.001366         2.134831
 C        -2.544428         1.318666         1.311612
 O        -3.775836         1.590379         1.763014
 C        -2.050233         0.274799         0.302616
 C        -2.481590         0.692954        -1.109567
 C        -2.314934         2.256800        -1.020664
 C        -1.824068         2.291354         0.375847
 H         0.513247         0.185090        -0.656791
 H        -0.997106        -0.030787         2.382790
 H        -0.891827         1.819572         2.767078
 H        -4.298923         1.044090         2.228737
 H        -1.901761        -0.782813         0.638742
 H        -1.676531         0.329500        -1.848005
 H        -3.514801         0.455186        -1.274739
 H        -1.530050         2.744873        -1.671695
 H        -3.248155         2.804834        -1.323499
 H        -1.524329         3.256110         0.683201
