19
Iteration:  1747
 O         0.383090         0.813036         0.090174
 C        -0.857911         1.003646         0.699238
 C        -1.173416         0.947387         2.233863
 C        -2.542400         1.274812         1.307515
 O        -3.886020         1.635069         1.862103
 C        -2.124394         0.252616         0.272182
 C        -2.496674         0.685748        -1.155282
 C        -2.153923         2.174120        -1.117547
 C        -1.669514         2.265555         0.324807
 H         0.667416        -0.164379        -0.064529
 H        -1.143175        -0.076076         2.793917
 H        -0.792631         1.883341         2.761799
 H        -4.082321         0.790349         2.502117
 H        -2.219234        -0.781527         0.678754
 H        -1.880190         0.166184        -1.900041
 H        -3.579452         0.402274        -1.245427
 H        -1.409733         2.589979        -1.923011
 H        -3.028507         2.872410        -1.174608
 H        -1.271759         3.088378         0.862770
