19
Iteration:  2065charge 0 multiplicity 1
 O         0.440505         0.900010         0.114346
 C        -0.844346         0.936594         0.712006
 C        -1.241500         0.911545         2.097365
 C        -2.588707         1.274601         1.238730
 O        -3.804445         1.627779         1.862522
 C        -2.142920         0.195753         0.239553
 C        -2.604832         0.685905        -1.100956
 C        -2.105588         2.191291        -1.085752
 C        -1.650147         2.309424         0.414858
 H         0.883391         0.026249         0.272112
 H        -1.288479         0.023675         2.700947
 H        -0.720375         1.653268         2.671430
 H        -4.405649         0.988992         2.175305
 H        -2.245738        -0.860046         0.588992
 H        -2.061098         0.062542        -1.881770
 H        -3.773453         0.541681        -1.051647
 H        -1.178181         2.209984        -1.763601
 H        -2.944254         2.866869        -1.224303
 H        -1.307701         3.169831         0.997484
