19
Iteration:  4026charge 0 multiplicity 1
 O         0.488240         0.771797         0.330685
 C        -0.829268         0.893149         0.675545
 C        -1.362583         0.999686         2.140720
 C        -2.453731         1.392908         1.249977
 O        -3.800034         1.515943         1.826153
 C        -2.074297         0.190496         0.154009
 C        -2.617169         0.720253        -1.179224
 C        -2.230328         2.271616        -1.066759
 C        -1.680479         2.211019         0.350600
 H         0.574043         0.161528        -0.318535
 H        -1.581967         0.136434         2.769858
 H        -0.770463         1.860931         2.672309
 H        -3.495169         1.696280         2.697335
 H        -2.103391        -0.846211         0.484102
 H        -1.902726         0.215238        -1.896017
 H        -3.676675         0.605709        -1.189244
 H        -1.501439         2.556540        -1.908931
 H        -3.136677         2.885241        -1.211663
 H        -1.442892         3.148174         0.804236
