19
Iteration:   912charge 0 multiplicity 1
 O         0.638817         0.863551         0.093700
 C        -0.770253         0.894414         0.660195
 C        -1.304991         0.852194         2.083874
 C        -2.523387         1.274432         1.320165
 O        -3.901460         1.617147         1.772682
 C        -2.184074         0.253189         0.259405
 C        -2.678397         0.722055        -1.120101
 C        -2.253427         2.320293        -0.982546
 C        -1.564774         2.213722         0.406485
 H         0.829120        -0.181812         0.240545
 H        -1.233396        -0.199870         2.630102
 H        -0.918353         1.598068         2.731535
 H        -4.019055         1.080098         2.548887
 H        -2.234490        -0.861907         0.645556
 H        -2.133107         0.223056        -1.957066
 H        -3.861688         0.636198        -1.283161
 H        -1.474860         2.691445        -1.613606
 H        -3.094868         2.972515        -0.890552
 H        -1.302078         3.172633         0.855813
