19
Iteration:  1337
 O         0.603387         0.689093         0.143796
 C        -0.758173         0.917232         0.604869
 C        -1.327030         0.963702         2.156090
 C        -2.507487         1.333757         1.362395
 O        -3.815974         1.625547         1.719994
 C        -2.080244         0.223298         0.229811
 C        -2.641443         0.653539        -1.092995
 C        -2.301357         2.216870        -0.975026
 C        -1.707929         2.317732         0.455787
 H         0.699722         1.356217        -0.514362
 H        -1.338605        -0.030900         2.565661
 H        -0.847409         1.616830         2.802919
 H        -4.132426         0.916808         2.325187
 H        -2.261492        -0.760628         0.602820
 H        -2.144824         0.126646        -1.988934
 H        -3.701752         0.557700        -1.338566
 H        -1.500923         2.613459        -1.673903
 H        -3.150895         2.962064        -1.025071
 H        -1.330134         3.266204         0.841507
