19
Iteration:  3517charge 0 multiplicity 1
 O         0.523422         0.820534         0.013235
 C        -0.846414         0.918627         0.707296
 C        -1.345195         0.835216         2.152162
 C        -2.484163         1.377247         1.375007
 O        -3.815693         1.604930         1.794943
 C        -2.201735         0.152452         0.285432
 C        -2.528503         0.717916        -1.167991
 C        -2.239716         2.243275        -0.966500
 C        -1.629941         2.225360         0.433385
 H         1.095868         1.234496         0.755701
 H        -1.388585        -0.229956         2.439175
 H        -0.801347         1.486494         2.892296
 H        -4.442303         1.977828         1.060062
 H        -2.361134        -0.872000         0.593378
 H        -1.747058         0.228177        -1.740390
 H        -3.558089         0.393701        -1.545947
 H        -1.539841         2.561065        -1.727837
 H        -3.178958         2.884694        -1.102831
 H        -1.094381         3.060069         0.928610
