19
Iteration:  4450charge 0 multiplicity 1
 O         0.469438         0.822755         0.212976
 C        -0.844786         1.049213         0.663854
 C        -1.249833         1.080258         2.163290
 C        -2.558947         1.317306         1.331796
 O        -3.839439         1.645149         1.825226
 C        -2.049770         0.121105         0.395588
 C        -2.539000         0.512222        -1.081820
 C        -2.171590         2.020221        -1.174500
 C        -1.741508         2.231070         0.321415
 H         0.499978         1.101147        -0.809216
 H        -1.224006         0.263103         2.872457
 H        -0.944629         2.048147         2.671837
 H        -3.924248         2.607476         1.626284
 H        -2.082894        -0.930462         0.728315
 H        -1.906922         0.004187        -1.845151
 H        -3.623536         0.428500        -1.272446
 H        -1.523950         2.297918        -1.979046
 H        -2.972148         2.709381        -1.504154
 H        -1.512313         3.174252         0.785373
