19
Iteration:  2021charge 0 multiplicity 1
 O         0.501675         0.751133         0.168432
 C        -0.697796         0.918331         0.677385
 C        -1.223732         0.998159         2.089066
 C        -2.473432         1.293640         1.273815
 O        -3.868674         1.595248         1.638013
 C        -2.093567         0.232108         0.283596
 C        -2.659046         0.720838        -1.050472
 C        -2.290051         2.267974        -0.943158
 C        -1.649300         2.270221         0.417439
 H         0.906904        -0.150349         0.430141
 H        -1.117477         0.086156         2.674898
 H        -0.975823         1.906302         2.589178
 H        -4.235256         0.756165         1.939674
 H        -2.312514        -0.815110         0.570246
 H        -2.252712         0.293901        -2.000932
 H        -3.768668         0.624110        -0.839846
 H        -1.606100         2.553096        -1.794885
 H        -3.282271         2.682008        -0.905424
 H        -1.434806         3.288882         0.764146
