19
Iteration:  3072charge 0 multiplicity 1
 O         0.518008         0.600286         0.331202
 C        -0.856637         1.022097         0.653180
 C        -1.281821         0.957907         2.050398
 C        -2.503345         1.265653         1.304466
 O        -3.849140         1.579201         1.873298
 C        -2.035650         0.227652         0.209112
 C        -2.599516         0.734174        -1.154700
 C        -2.220149         2.281620        -1.084170
 C        -1.696276         2.366860         0.381383
 H         0.612589         0.785386        -0.668438
 H        -1.086464        -0.084831         2.338879
 H        -0.935541         1.695866         2.805235
 H        -4.108862         0.714311         2.149824
 H        -1.842129        -0.802309         0.570543
 H        -2.279304         0.119795        -2.002307
 H        -3.693012         0.614950        -1.076510
 H        -1.443444         2.641097        -1.823828
 H        -2.974980         2.978556        -1.284399
 H        -1.628203         3.368173         0.723185
