19
Iteration:  3767
 O         0.546372         0.826269         0.186805
 C        -0.852716         0.933728         0.597324
 C        -1.303859         0.854940         2.133528
 C        -2.557290         1.311030         1.377060
 O        -3.833742         1.523229         1.890081
 C        -2.134444         0.263201         0.226150
 C        -2.575442         0.701931        -1.150991
 C        -2.173992         2.252004        -1.025462
 C        -1.624194         2.290750         0.361373
 H         0.687058        -0.070328         0.387854
 H        -1.355920        -0.143776         2.581537
 H        -0.819747         1.549184         2.852802
 H        -4.394478         1.926684         1.183018
 H        -2.415970        -0.790084         0.364760
 H        -1.998801         0.322713        -1.975919
 H        -3.679693         0.709807        -1.315367
 H        -1.406933         2.512279        -1.765508
 H        -3.020838         2.954682        -1.192074
 H        -1.328542         3.320900         0.738371
