19
Iteration:  1478
 O         0.339914         0.664401         0.080080
 C        -0.839417         1.062860         0.685170
 C        -1.274569         0.867237         2.107182
 C        -2.539247         1.345675         1.290663
 O        -3.778622         1.678395         1.888603
 C        -2.059682         0.230951         0.224381
 C        -2.446302         0.590732        -1.142496
 C        -2.251602         2.225947        -1.022505
 C        -1.672698         2.328242         0.396930
 H         0.909055         1.339931         0.387835
 H        -1.387889        -0.116715         2.531275
 H        -0.888679         1.729522         2.792108
 H        -4.039882         0.768643         2.368646
 H        -2.121705        -0.739650         0.570225
 H        -1.885877        -0.011282        -1.890553
 H        -3.481777         0.335947        -1.398301
 H        -1.560258         2.507659        -1.803967
 H        -3.168956         2.799709        -1.126219
 H        -1.355095         3.259665         0.903547
