19
Iteration:   602
 O         0.571628         0.700429         0.224466
 C        -0.820014         0.999436         0.699035
 C        -1.217199         0.956643         2.139252
 C        -2.536170         1.254555         1.321075
 O        -3.834873         1.448260         1.860573
 C        -2.228665         0.296147         0.220280
 C        -2.583320         0.728653        -1.225523
 C        -2.303440         2.281474        -1.025782
 C        -1.550078         2.337622         0.302787
 H         0.597797        -0.299633        -0.004501
 H        -1.323574         0.056106         2.713844
 H        -0.949741         1.799632         2.746855
 H        -3.720673         1.945088         2.795085
 H        -2.376183        -0.742098         0.303147
 H        -2.047479         0.193660        -2.055099
 H        -3.640601         0.585968        -1.437845
 H        -1.803029         2.777651        -1.926655
 H        -3.296144         2.771955        -0.976707
 H        -1.355220         3.448643         0.618846
