19
Iteration:   874
 O         0.444921         0.741926         0.217660
 C        -0.823361         1.036297         0.615477
 C        -1.222519         0.915858         2.056594
 C        -2.501362         1.201332         1.282134
 O        -3.708380         1.568733         1.778900
 C        -2.110474         0.222883         0.188743
 C        -2.750567         0.728624        -1.121528
 C        -2.183712         2.316258        -0.967121
 C        -1.705788         2.297372         0.439021
 H         0.902219         0.003645         0.644682
 H        -1.253951        -0.083113         2.568248
 H        -0.883354         1.798917         2.746096
 H        -4.208597         0.856508         2.023173
 H        -1.939648        -0.783433         0.392573
 H        -2.476400         0.186990        -2.019530
 H        -3.772129         0.600570        -1.050778
 H        -1.392287         2.581157        -1.716285
 H        -2.892391         3.181432        -1.101167
 H        -1.293088         3.242749         0.953310
