19
Iteration:   488charge 0 multiplicity 1
 O         0.498950         0.750713         0.137514
 C        -0.895362         0.938341         0.595624
 C        -1.243162         0.945056         2.126423
 C        -2.594780         1.299897         1.412300
 O        -3.855585         1.550657         1.955176
 C        -2.073342         0.235936         0.140932
 C        -2.507630         0.736654        -1.198690
 C        -2.218555         2.228296        -1.135698
 C        -1.715817         2.266945         0.414260
 H         0.890841         0.075878         0.707996
 H        -1.225585        -0.013962         2.758973
 H        -0.737177         1.707753         2.772800
 H        -3.762149         2.278355         2.686987
 H        -2.203296        -0.869592         0.330160
 H        -1.930469         0.290029        -2.024928
 H        -3.549169         0.428667        -1.509202
 H        -1.489552         2.590368        -1.822023
 H        -3.100986         2.839094        -1.245417
 H        -1.208565         3.210589         0.905495
