19
Iteration:  1207
 O         0.538462         0.767036         0.125692
 C        -0.784036         0.924596         0.666931
 C        -1.209699         0.976607         2.174824
 C        -2.487420         1.210493         1.365715
 O        -3.835529         1.641945         1.608714
 C        -2.166143         0.188442         0.179498
 C        -2.773926         0.792657        -1.095002
 C        -2.256283         2.229275        -0.928092
 C        -1.576993         2.176960         0.449276
 H         1.244051         1.085349         0.835782
 H        -0.945352         0.073471         2.913839
 H        -0.837975         1.887609         2.607799
 H        -4.346634         0.864920         1.917759
 H        -2.357635        -0.930712         0.356345
 H        -2.396422         0.367045        -1.990630
 H        -3.855809         0.685712        -1.016093
 H        -1.628620         2.439707        -1.826497
 H        -2.953498         3.081372        -0.820797
 H        -1.114009         3.086942         0.812952
