19
Iteration:  1155charge 0 multiplicity 1
 O         0.475696         0.641580         0.167273
 C        -0.795279         1.048093         0.637850
 C        -1.202071         0.861150         2.168124
 C        -2.543352         1.326644         1.330227
 O        -3.926097         1.644203         1.908727
 C        -2.170445         0.265920         0.228686
 C        -2.501222         0.741158        -1.246952
 C        -2.200359         2.223576        -1.031507
 C        -1.675767         2.270930         0.408862
 H         0.615961         1.072825        -0.749497
 H        -1.385557        -0.227612         2.306987
 H        -0.671164         1.526793         2.914156
 H        -3.971811         0.782861         2.541863
 H        -2.181862        -0.804215         0.673632
 H        -1.739965         0.322250        -1.889908
 H        -3.510561         0.364567        -1.638957
 H        -1.552816         2.598517        -1.760104
 H        -2.983877         2.934506        -1.041713
 H        -1.354498         3.185208         0.799390
