19
Iteration:  3922
 O         0.452775         0.826492         0.117660
 C        -0.864605         0.904229         0.646430
 C        -1.208237         0.833016         2.131683
 C        -2.485632         1.382500         1.368747
 O        -3.841452         1.667018         1.731298
 C        -2.154828         0.236713         0.265002
 C        -2.531603         0.658618        -1.143905
 C        -2.199957         2.249437        -1.001451
 C        -1.695058         2.291200         0.498886
 H         0.886171         0.088193         0.706809
 H        -1.318347        -0.170642         2.641833
 H        -0.478387         1.436491         2.631906
 H        -4.322244         0.979965         1.263039
 H        -2.296637        -0.859005         0.495441
 H        -2.068848         0.148682        -2.001700
 H        -3.620683         0.383347        -1.362491
 H        -1.482428         2.580838        -1.750270
 H        -3.181042         2.796748        -1.006187
 H        -1.220670         3.239610         0.922832
