19
Iteration:  3258
 O         0.489961         0.840970         0.194083
 C        -0.789679         0.898488         0.651200
 C        -1.322282         0.897288         2.192695
 C        -2.531114         1.295903         1.254025
 O        -3.778484         1.587783         1.777925
 C        -2.150481         0.217651         0.251596
 C        -2.606415         0.706849        -1.103886
 C        -2.170125         2.306850        -0.965104
 C        -1.622263         2.214515         0.429900
 H         0.319305         0.388125        -0.703477
 H        -1.266413        -0.140116         2.610112
 H        -0.900060         1.597364         2.915954
 H        -4.572481         1.365545         1.175428
 H        -2.126942        -0.885772         0.394224
 H        -2.234368         0.231266        -2.040793
 H        -3.693381         0.568365        -1.197576
 H        -1.360823         2.539824        -1.690150
 H        -3.010573         3.037770        -1.055603
 H        -1.222312         3.166246         0.834862
