19
Iteration:   140
 O         0.561231         0.656683         0.164580
 C        -0.823521         0.916321         0.656822
 C        -1.257297         0.873899         2.231173
 C        -2.434242         1.384833         1.462778
 O        -3.900127         1.442102         1.693673
 C        -2.179896         0.305428         0.256537
 C        -2.570545         0.775205        -1.212706
 C        -2.366634         2.318438        -1.039660
 C        -1.568871         2.231616         0.395057
 H         0.889336         1.557273        -0.306290
 H        -1.258917        -0.198927         2.648476
 H        -0.837608         1.650925         2.868643
 H        -4.084726         1.904300         2.540845
 H        -2.543449        -0.700678         0.542472
 H        -1.776870         0.426995        -1.906906
 H        -3.596158         0.467152        -1.574003
 H        -1.619452         2.739949        -1.800764
 H        -3.304802         2.941704        -0.930598
 H        -1.032745         3.121776         0.495201
