19
Iteration:  4314charge 0 multiplicity 1
 O         0.442447         0.774594         0.244432
 C        -0.798968         0.959735         0.725648
 C        -1.243890         1.040595         2.194645
 C        -2.506481         1.390085         1.281203
 O        -3.804817         1.556703         1.743656
 C        -2.054376         0.213942         0.388224
 C        -2.501402         0.570050        -1.060903
 C        -2.278914         2.033209        -1.177204
 C        -1.749774         2.362034         0.281763
 H         0.409106         1.132551        -0.725660
 H        -1.485657         0.018428         2.647596
 H        -0.758576         1.796481         2.810670
 H        -3.765100         2.288934         2.392860
 H        -2.288856        -0.825165         0.684877
 H        -1.900263        -0.036359        -1.745975
 H        -3.557875         0.223810        -1.302732
 H        -1.604356         2.337310        -1.916069
 H        -3.125296         2.660643        -1.547380
 H        -1.516692         3.436367         0.607643
