19
Iteration:  3721
 O         0.445803         0.643961         0.232632
 C        -0.806514         0.976039         0.598401
 C        -1.230700         1.015607         2.119144
 C        -2.484478         1.260963         1.300622
 O        -3.763942         1.552675         1.879830
 C        -2.146819         0.221103         0.168331
 C        -2.547361         0.795641        -1.183790
 C        -2.257950         2.308943        -1.041859
 C        -1.747344         2.231891         0.480301
 H         0.776821         0.217580         1.061995
 H        -1.233608         0.066416         2.587654
 H        -0.865479         1.887843         2.746236
 H        -4.501838         1.093213         1.308291
 H        -2.152338        -0.870472         0.205469
 H        -1.882068         0.431006        -1.945694
 H        -3.585077         0.784335        -1.514648
 H        -1.384548         2.641721        -1.660030
 H        -3.091136         2.879985        -1.352263
 H        -1.335403         3.172644         0.785211
