19
Iteration:  4462charge 0 multiplicity 1
 O         0.486804         0.872935         0.173036
 C        -0.818797         0.985478         0.718134
 C        -1.211895         1.047275         2.191878
 C        -2.556691         1.394550         1.363280
 O        -3.893585         1.658387         1.754732
 C        -2.119575         0.192408         0.323835
 C        -2.555594         0.498790        -1.068053
 C        -2.224234         1.994616        -1.126257
 C        -1.701064         2.254537         0.345207
 H         0.527128         1.056362        -0.749086
 H        -1.105480         0.021583         2.541032
 H        -0.667467         1.796018         2.831551
 H        -4.100505         2.574608         1.877281
 H        -1.962911        -0.844320         0.644654
 H        -1.845254        -0.094373        -1.741787
 H        -3.435342        -0.077368        -1.294734
 H        -1.273619         1.934292        -1.633918
 H        -3.038963         2.639554        -1.375693
 H        -1.342220         3.258581         0.397913
