19
Iteration:  2574
 O         0.520111         0.744795         0.199629
 C        -0.850880         0.991598         0.552671
 C        -1.293538         1.035004         2.117403
 C        -2.526832         1.343627         1.342371
 O        -3.814191         1.554309         1.776607
 C        -2.177023         0.177301         0.254404
 C        -2.658557         0.736741        -1.053067
 C        -2.124942         2.135250        -1.012832
 C        -1.639004         2.281135         0.404200
 H         0.543507         1.168113        -0.685249
 H        -1.345657         0.063219         2.601037
 H        -0.870802         1.740398         2.824814
 H        -4.112780         0.670331         2.211617
 H        -2.280461        -0.903798         0.561783
 H        -2.104397         0.309231        -1.789277
 H        -3.772046         0.557753        -1.155585
 H        -1.199040         2.244492        -1.595392
 H        -2.832881         2.924316        -1.384419
 H        -1.070823         3.208879         0.840988
