19
Iteration:  4233charge 0 multiplicity 1
 O         0.548811         0.762824         0.204144
 C        -0.749192         1.072259         0.677508
 C        -1.320907         1.014300         2.149530
 C        -2.572494         1.375357         1.253793
 O        -3.863225         1.622504         1.648088
 C        -2.020835         0.271315         0.336114
 C        -2.594113         0.546280        -0.996373
 C        -2.320470         2.088886        -1.050476
 C        -1.655690         2.281260         0.350288
 H         0.414286         0.345337        -0.691953
 H        -1.222762         0.032166         2.595393
 H        -0.774883         1.700449         2.860015
 H        -3.963002         1.299380         2.542185
 H        -2.159185        -0.796279         0.582215
 H        -1.830207         0.043649        -1.698023
 H        -3.640759         0.258790        -1.038648
 H        -1.477687         2.359755        -1.759364
 H        -3.214412         2.725891        -1.013925
 H        -1.295786         3.252829         0.647661
