19
Iteration:   479
 O         0.451543         0.740172         0.166370
 C        -0.823523         0.927233         0.650442
 C        -1.281434         0.962309         2.049089
 C        -2.533563         1.345224         1.284217
 O        -3.816859         1.507478         1.961081
 C        -2.181332         0.231944         0.216540
 C        -2.474276         0.717127        -1.238249
 C        -2.246589         2.251727        -1.043107
 C        -1.705065         2.266890         0.399498
 H         0.893671         0.251587         0.883810
 H        -1.361620        -0.007304         2.549243
 H        -0.755125         1.773835         2.587494
 H        -3.673569         2.133134         2.778261
 H        -2.160028        -0.808861         0.360738
 H        -1.842553         0.201399        -1.969068
 H        -3.540406         0.468256        -1.440340
 H        -1.548855         2.702550        -1.765607
 H        -3.149159         2.831752        -1.168977
 H        -1.074829         3.231902         0.631065
