19
Iteration:  1848
 O         0.575369         0.773030         0.211938
 C        -0.800207         0.955281         0.687275
 C        -1.198521         1.035971         2.190090
 C        -2.491762         1.210751         1.276313
 O        -3.796345         1.678115         1.679381
 C        -2.049670         0.173418         0.228214
 C        -2.728656         0.712509        -1.137167
 C        -2.325730         2.224762        -0.972796
 C        -1.685392         2.189471         0.381605
 H         0.812485        -0.102339         0.372556
 H        -0.947597         0.110255         2.861835
 H        -0.826310         2.085833         2.617693
 H        -4.359524         0.907248         1.759269
 H        -2.192424        -0.944642         0.463315
 H        -2.528526         0.296444        -2.143682
 H        -3.855631         0.747025        -1.018528
 H        -1.645374         2.828033        -1.719706
 H        -3.236810         2.845056        -0.794940
 H        -1.316902         3.161885         0.803907
