19
Iteration:  4366
 O         0.526810         0.790344         0.242358
 C        -0.810663         0.953821         0.650945
 C        -1.275439         1.193793         2.235573
 C        -2.498125         1.405569         1.353846
 O        -3.743312         1.672223         1.703760
 C        -2.029129         0.133591         0.336044
 C        -2.559408         0.528652        -1.081759
 C        -2.339685         2.109842        -1.095810
 C        -1.760121         2.213962         0.304685
 H         0.478459         0.364746        -0.580544
 H        -1.311664         0.300569         2.895915
 H        -1.049859         2.137007         2.716036
 H        -4.336192         0.941968         1.550754
 H        -2.124896        -0.946504         0.499443
 H        -2.266446        -0.119866        -1.962400
 H        -3.621594         0.240445        -1.100202
 H        -1.476403         2.459996        -1.791739
 H        -3.190575         2.761009        -1.158871
 H        -1.356266         3.172410         0.667797
