19
Iteration:  1881
 O         0.508387         0.790578         0.145250
 C        -0.804290         0.973847         0.672920
 C        -1.249056         0.892302         2.175136
 C        -2.477411         1.405181         1.333945
 O        -3.797629         1.547263         1.649549
 C        -2.113203         0.258190         0.324918
 C        -2.656759         0.735111        -1.034240
 C        -2.232593         2.204272        -1.072257
 C        -1.716537         2.300305         0.340523
 H         0.856441        -0.162774         0.251028
 H        -1.241426        -0.183999         2.644187
 H        -0.692322         1.634526         2.942187
 H        -4.112223         0.623325         2.078319
 H        -2.307501        -0.758811         0.830973
 H        -2.359196         0.096852        -1.889453
 H        -3.784929         0.629780        -0.945581
 H        -1.384823         2.585408        -1.807040
 H        -3.120761         2.875675        -1.172667
 H        -1.224800         3.211203         0.760256
