19
Iteration:  4348charge 0 multiplicity 1
 O         0.500775         0.840380         0.186571
 C        -0.772810         0.986079         0.721390
 C        -1.191603         1.168572         2.137923
 C        -2.573400         1.249101         1.297902
 O        -3.918576         1.751045         1.666805
 C        -2.060604         0.134126         0.356195
 C        -2.567457         0.557799        -1.087860
 C        -2.255757         2.044669        -1.033258
 C        -1.622170         2.215353         0.354919
 H         0.393638         0.535888        -0.676373
 H        -1.073891         0.318838         2.889371
 H        -0.760288         2.054845         2.657544
 H        -4.248438         1.056074         2.245169
 H        -2.210346        -0.928949         0.668700
 H        -1.949088        -0.044746        -1.752482
 H        -3.669938         0.299582        -1.210757
 H        -1.615835         2.319347        -1.813556
 H        -3.241017         2.565675        -1.027028
 H        -1.410985         3.276796         0.707144
