19
Iteration:  3763charge 0 multiplicity 1
 O         0.551450         0.825515         0.191858
 C        -0.852219         0.949863         0.600548
 C        -1.323108         0.859947         2.125180
 C        -2.519755         1.346240         1.352119
 O        -3.859757         1.506578         1.926026
 C        -2.164592         0.263285         0.203954
 C        -2.562932         0.751455        -1.146230
 C        -2.192388         2.240478        -1.034265
 C        -1.603176         2.276423         0.328246
 H         0.766551        -0.156345         0.483788
 H        -1.334577        -0.115055         2.591629
 H        -0.897698         1.471958         2.953219
 H        -4.399418         1.847841         1.146687
 H        -2.326121        -0.818246         0.377478
 H        -1.967791         0.222497        -1.945987
 H        -3.654774         0.592223        -1.219890
 H        -1.409561         2.496685        -1.780915
 H        -3.032226         2.891920        -1.067869
 H        -1.190794         3.180300         0.736218
