19
Iteration:  1534
 O         0.513451         0.686926         0.195604
 C        -0.814651         0.937728         0.678220
 C        -1.207446         1.044778         2.135675
 C        -2.485444         1.259897         1.326719
 O        -3.800247         1.624615         1.608463
 C        -2.079171         0.160352         0.204997
 C        -2.720491         0.752495        -1.092888
 C        -2.260727         2.203504        -0.919572
 C        -1.640134         2.203147         0.401348
 H         0.942472         1.606066        -0.012221
 H        -1.098667         0.248641         2.894999
 H        -0.692928         1.884546         2.692953
 H        -4.267106         0.840914         2.036896
 H        -2.313364        -0.794539         0.482828
 H        -2.481589         0.159642        -1.989239
 H        -3.730509         0.906507        -0.785720
 H        -1.776830         2.708297        -1.738715
 H        -3.223874         2.748880        -0.793065
 H        -1.265892         3.130005         0.833191
