19
Iteration:  4429
 O         0.494367         0.749783         0.292074
 C        -0.838767         1.009414         0.735939
 C        -1.275335         1.258105         2.136561
 C        -2.547892         1.368272         1.240839
 O        -3.700794         1.527206         1.853687
 C        -2.137888         0.154910         0.298633
 C        -2.573449         0.528809        -1.143811
 C        -2.228846         2.040114        -1.089765
 C        -1.732338         2.240292         0.318005
 H         0.653358         0.866783        -0.632372
 H        -1.177208         0.405514         2.803034
 H        -1.079291         2.278501         2.534538
 H        -4.215979         2.315789         1.600398
 H        -2.229522        -0.915843         0.542345
 H        -2.064678        -0.215165        -1.869155
 H        -3.627586         0.288374        -1.123105
 H        -1.480157         2.481214        -1.863535
 H        -2.956827         2.772391        -1.458888
 H        -1.499319         3.256853         0.502023
