19
Iteration:   255charge 0 multiplicity 1
 O         0.544924         0.730100         0.126113
 C        -0.694516         1.041651         0.666426
 C        -1.326757         0.986844         2.201348
 C        -2.515906         1.198120         1.299455
 O        -3.838064         1.550528         1.691513
 C        -2.074322         0.223914         0.230045
 C        -2.606928         0.774949        -1.178290
 C        -2.288511         2.268346        -1.001821
 C        -1.704148         2.195294         0.510109
 H         0.507066        -0.288162        -0.175288
 H        -1.091934         0.017177         2.656224
 H        -1.088186         1.755024         2.979760
 H        -3.684862         2.269154         2.492030
 H        -2.193795        -0.891910         0.502738
 H        -2.358164         0.134967        -2.063373
 H        -3.718747         0.727770        -1.177394
 H        -1.548267         2.653247        -1.610147
 H        -3.218787         2.778116        -0.951741
 H        -1.375881         3.258325         0.839979
