19
Iteration:  1417charge 0 multiplicity 1
 O         0.413849         0.680842         0.036253
 C        -0.815915         1.048319         0.598861
 C        -1.263665         0.937187         2.184058
 C        -2.496465         1.347116         1.366837
 O        -3.814530         1.603809         1.795358
 C        -2.105568         0.277400         0.301352
 C        -2.506929         0.646080        -1.093249
 C        -2.254871         2.209649        -1.073283
 C        -1.702761         2.284350         0.407335
 H         1.067025         0.794380         0.715477
 H        -1.329511        -0.074423         2.641603
 H        -0.898250         1.560770         2.875434
 H        -4.148187         0.761142         2.289849
 H        -2.125205        -0.866940         0.549533
 H        -1.871480         0.230265        -1.843811
 H        -3.591095         0.534643        -1.297701
 H        -1.443933         2.590535        -1.733452
 H        -3.152525         2.862429        -1.241826
 H        -1.344887         3.230369         0.737055
