19
Iteration:  3122
 O         0.538678         0.825124         0.202645
 C        -0.803382         0.916525         0.673811
 C        -1.261846         0.925392         2.160629
 C        -2.489741         1.281400         1.271175
 O        -3.915794         1.593782         1.669820
 C        -2.232646         0.194264         0.242633
 C        -2.595485         0.711657        -1.104430
 C        -2.158897         2.255852        -0.948420
 C        -1.589607         2.200127         0.397816
 H         0.591609         1.091497        -0.686715
 H        -1.406530        -0.037483         2.682013
 H        -0.800587         1.721904         2.741675
 H        -3.685752         1.432865         2.690504
 H        -2.384387        -0.856258         0.543015
 H        -2.137053         0.142895        -1.918522
 H        -3.709691         0.620605        -1.106280
 H        -1.708157         2.681157        -1.838731
 H        -3.190368         2.810127        -0.901125
 H        -0.954797         3.041169         0.822334
