19
Iteration:  1306charge 0 multiplicity 1
 O         0.376684         0.749417         0.156808
 C        -0.875641         1.051320         0.695996
 C        -1.235940         0.927729         2.160046
 C        -2.536640         1.239920         1.364340
 O        -3.741103         1.647626         1.844299
 C        -2.157230         0.251218         0.256882
 C        -2.451535         0.657636        -1.235636
 C        -2.174546         2.203945        -1.054520
 C        -1.709855         2.261965         0.415232
 H         0.083185         0.710365        -0.832856
 H        -1.032858        -0.138688         2.459146
 H        -0.838272         1.502956         2.899984
 H        -4.155816         1.058750         2.575102
 H        -2.239726        -0.881332         0.534181
 H        -1.697626         0.231573        -1.891287
 H        -3.464080         0.520546        -1.614309
 H        -1.438111         2.736225        -1.710712
 H        -3.175951         2.742709        -1.127036
 H        -1.511441         3.219313         0.776816
