19
Iteration:  4423
 O         0.512931         0.733199         0.335970
 C        -0.829494         1.011857         0.680168
 C        -1.260335         1.229311         2.135966
 C        -2.533356         1.408103         1.250911
 O        -3.737221         1.502742         1.874190
 C        -2.103877         0.163567         0.323009
 C        -2.610973         0.542746        -1.146927
 C        -2.250588         2.027583        -1.135364
 C        -1.714756         2.262456         0.292602
 H         0.555806         0.826403        -0.719994
 H        -1.204771         0.543611         3.014245
 H        -0.997605         2.212239         2.523728
 H        -4.318892         2.233225         1.540987
 H        -2.204049        -0.890686         0.601423
 H        -1.944316         0.101195        -1.873834
 H        -3.692845         0.326587        -1.316983
 H        -1.489314         2.193141        -1.927944
 H        -3.028627         2.798004        -1.361724
 H        -1.440085         3.297597         0.677522
