19
Iteration:  3850
 O         0.414865         0.745241         0.192272
 C        -0.906025         1.009298         0.631347
 C        -1.190687         0.897739         2.149334
 C        -2.517194         1.271925         1.340204
 O        -3.799852         1.484567         1.747866
 C        -2.172519         0.259929         0.259875
 C        -2.562879         0.734585        -1.154413
 C        -2.208352         2.302187        -1.056829
 C        -1.612667         2.296693         0.404624
 H         0.705656        -0.039186         0.708408
 H        -1.266203        -0.104429         2.563372
 H        -0.880231         1.749211         2.814674
 H        -3.881453         2.069988         2.469648
 H        -2.133236        -0.805108         0.466763
 H        -1.994164         0.179737        -1.934384
 H        -3.486382         0.548525        -1.638477
 H        -1.439342         2.569753        -1.839025
 H        -3.103114         2.909099        -1.171231
 H        -1.320932         3.150913         0.933090
