19
Iteration:   906
 O         0.604010         0.840613         0.144773
 C        -0.783654         0.878064         0.667084
 C        -1.230193         0.886779         2.130373
 C        -2.516595         1.241019         1.333386
 O        -3.858250         1.619258         1.755162
 C        -2.175822         0.208043         0.207489
 C        -2.710231         0.769697        -1.134120
 C        -2.259280         2.313638        -1.014906
 C        -1.633824         2.215814         0.406247
 H         1.005246        -0.024215         0.248070
 H        -1.344753        -0.045464         2.638997
 H        -0.822107         1.727094         2.762322
 H        -4.080661         0.999288         2.585994
 H        -2.241040        -0.829437         0.388742
 H        -2.223978         0.296902        -1.978227
 H        -3.754582         0.637039        -1.139324
 H        -1.451368         2.668084        -1.715300
 H        -3.099337         3.085925        -0.900372
 H        -1.202582         3.151283         0.864955
