19
Iteration:    29charge 0 multiplicity 1
 O         0.447455         0.724235         0.054332
 C        -0.796590         0.958316         0.684307
 C        -1.203214         0.901942         2.107877
 C        -2.616717         1.243298         1.351298
 O        -3.882950         1.464606         1.832579
 C        -2.154415         0.240837         0.148575
 C        -2.555125         0.795469        -1.171441
 C        -2.083293         2.302164        -1.002691
 C        -1.769861         2.286866         0.488550
 H         1.095050         0.620850         0.797714
 H        -0.977360        -0.120599         2.579104
 H        -0.945885         1.571781         2.949844
 H        -3.902673         2.456772         1.980631
 H        -2.199580        -0.876893         0.440713
 H        -2.190587         0.229374        -2.052526
 H        -3.680305         0.753420        -1.064303
 H        -1.028329         2.440589        -1.437499
 H        -2.701103         3.149723        -1.384519
 H        -1.360922         3.171717         1.023301
