19
Iteration:  3451charge 0 multiplicity 1
 O         0.453717         0.597405         0.206120
 C        -0.815821         0.983494         0.682209
 C        -1.275262         1.039919         2.136961
 C        -2.531141         1.421138         1.260910
 O        -3.763263         1.386407         1.946502
 C        -2.144225         0.255012         0.214041
 C        -2.555755         0.749933        -1.194803
 C        -2.187727         2.280762        -1.111071
 C        -1.704434         2.336774         0.385631
 H         1.093311         0.427327         0.860097
 H        -1.223981         0.024092         2.571658
 H        -0.820790         1.828561         2.835940
 H        -4.462329         1.342192         1.222451
 H        -2.182548        -0.804554         0.447812
 H        -2.254751         0.259226        -2.144379
 H        -3.724684         0.694559        -1.302015
 H        -1.425662         2.649147        -1.802377
 H        -3.133336         2.899224        -1.113698
 H        -1.337339         3.302123         0.810866
