19
Iteration:  3684
 O         0.412482         0.709847         0.015973
 C        -0.792180         0.974267         0.681388
 C        -1.317060         0.920220         2.172179
 C        -2.544722         1.331289         1.383392
 O        -3.795448         1.555779         1.750217
 C        -2.110371         0.261574         0.272507
 C        -2.526275         0.773128        -1.135559
 C        -2.236263         2.219725        -0.948588
 C        -1.598273         2.305911         0.431542
 H         1.203785         0.492295         0.635743
 H        -1.588960        -0.112832         2.613287
 H        -1.032479         1.628510         2.958042
 H        -4.377756         1.011721         1.105862
 H        -2.327974        -0.791680         0.542035
 H        -1.874197         0.165061        -1.832639
 H        -3.518672         0.543641        -1.564586
 H        -1.567439         2.659610        -1.689493
 H        -3.180269         2.833042        -1.021130
 H        -1.105859         3.066656         1.017939
