19
Iteration:  1858
 O         0.535201         0.767465         0.216390
 C        -0.740697         1.046463         0.650530
 C        -1.230854         1.017385         2.114936
 C        -2.488345         1.259818         1.305677
 O        -3.804071         1.627085         1.650954
 C        -2.135105         0.154943         0.188216
 C        -2.779164         0.708196        -1.084452
 C        -2.288113         2.192732        -0.899480
 C        -1.582133         2.255853         0.406183
 H         0.716561        -0.123404         0.323789
 H        -1.020431         0.128329         2.884588
 H        -0.920228         2.030622         2.709723
 H        -4.273105         0.869648         1.786114
 H        -1.960912        -0.924412         0.484875
 H        -2.352246         0.243216        -2.019832
 H        -3.887717         0.420804        -1.087294
 H        -1.603994         2.442511        -1.876233
 H        -3.110507         2.952475        -0.887443
 H        -1.347149         3.205792         0.929430
