19
Iteration:  3041
 O         0.493310         0.791007         0.242058
 C        -0.841274         0.837317         0.707887
 C        -1.261158         1.004436         2.139716
 C        -2.481022         1.353680         1.312835
 O        -3.763557         1.547285         1.845744
 C        -2.257921         0.231408         0.259604
 C        -2.530098         0.715650        -1.261294
 C        -2.229006         2.277021        -1.040312
 C        -1.634629         2.255866         0.419823
 H         0.347302         0.470871        -0.631776
 H        -1.191683         0.026279         2.691631
 H        -0.803734         1.880480         2.687854
 H        -4.259700         0.814178         1.317557
 H        -2.439972        -0.771627         0.697667
 H        -1.912656         0.091815        -1.978054
 H        -3.570532         0.505044        -1.493994
 H        -1.498768         2.714235        -1.828551
 H        -3.217267         2.773873        -0.909297
 H        -1.301726         3.156967         0.903453
