19
Iteration:   401
 O         0.411973         0.679197         0.094373
 C        -0.786989         1.003855         0.706644
 C        -1.263684         0.929484         2.274326
 C        -2.447891         1.257448         1.371928
 O        -3.781246         1.481568         1.635499
 C        -2.117360         0.231305         0.297181
 C        -2.646082         0.778787        -1.127863
 C        -2.262181         2.290044        -1.012529
 C        -1.645919         2.192589         0.374696
 H         0.746973         1.527526        -0.005184
 H        -1.113763        -0.104963         2.693458
 H        -0.855412         1.702914         2.948344
 H        -3.891193         2.328580         1.944941
 H        -2.349531        -0.822468         0.566195
 H        -2.100227         0.339694        -1.968742
 H        -3.752494         0.555345        -1.193843
 H        -1.432750         2.506347        -1.684132
 H        -3.006357         3.081762        -1.051561
 H        -1.296658         3.268391         0.764129
