19
Iteration:  4677
 O         0.541193         0.688981         0.445307
 C        -0.831070         1.009550         0.579603
 C        -1.258362         1.254369         2.126800
 C        -2.488671         1.264396         1.307279
 O        -3.785867         1.497422         1.784266
 C        -2.022155         0.199272         0.345447
 C        -2.612150         0.608799        -1.112984
 C        -2.320197         2.128191        -1.198355
 C        -1.753179         2.260723         0.228376
 H         0.857355         0.901698        -0.426700
 H        -1.163850         0.425551         2.813314
 H        -0.877894         2.163234         2.674813
 H        -3.763065         2.187462         2.503234
 H        -2.159248        -0.855169         0.646556
 H        -2.183930        -0.046914        -1.879926
 H        -3.765166         0.524730        -1.139537
 H        -1.552292         2.183885        -1.917030
 H        -3.277985         2.624653        -1.440271
 H        -1.764729         3.369102         0.494760
