19
Iteration:  2211charge 0 multiplicity 1
 O         0.430795         0.917710         0.159051
 C        -0.857878         0.962363         0.576097
 C        -1.265038         0.843889         2.159396
 C        -2.512997         1.275620         1.360632
 O        -3.768519         1.653730         1.779159
 C        -2.135754         0.244979         0.250456
 C        -2.646847         0.713023        -1.015657
 C        -2.139116         2.170094        -1.096062
 C        -1.621669         2.246259         0.387000
 H         0.824162         0.018279         0.594028
 H        -1.407645        -0.159045         2.491470
 H        -0.862917         1.616458         2.867640
 H        -4.217168         0.731604         1.813341
 H        -2.131987        -0.857291         0.355083
 H        -2.226874         0.149063        -1.859326
 H        -3.792622         0.634883        -1.086902
 H        -1.297751         2.391453        -1.764096
 H        -2.979374         2.828109        -1.391984
 H        -1.350476         3.219186         0.815555
