19
Iteration:  4009charge 0 multiplicity 1
 O         0.508075         0.725083         0.339983
 C        -0.820787         1.048698         0.669015
 C        -1.289983         0.951858         2.104184
 C        -2.549875         1.322402         1.314453
 O        -3.800926         1.446855         1.916370
 C        -2.175747         0.259319         0.201709
 C        -2.560053         0.707841        -1.222842
 C        -2.197425         2.193914        -1.113179
 C        -1.670284         2.345979         0.311589
 H         0.656286        -0.026303        -0.179617
 H        -1.275437        -0.091541         2.472792
 H        -1.035596         1.677524         2.840173
 H        -3.791490         2.266541         2.367694
 H        -2.328043        -0.839585         0.412235
 H        -2.126318         0.261261        -2.096521
 H        -3.677843         0.482259        -1.317939
 H        -1.471244         2.524041        -1.829840
 H        -2.982957         2.936486        -1.307480
 H        -1.111161         3.269394         0.676532
