19
Iteration:  3559charge 0 multiplicity 1
 O         0.370389         0.633063         0.146813
 C        -0.819964         0.956614         0.644807
 C        -1.241258         0.979519         2.219165
 C        -2.519305         1.292527         1.319477
 O        -3.796980         1.528900         1.815118
 C        -2.059689         0.176969         0.172610
 C        -2.540112         0.729552        -1.167721
 C        -2.195628         2.280678        -0.987380
 C        -1.758602         2.269334         0.485947
 H         0.899283         1.459289        -0.115669
 H        -1.324328         0.005521         2.663360
 H        -0.757622         1.705365         2.952715
 H        -4.205648         2.060613         1.032652
 H        -2.050205        -0.888663         0.408982
 H        -1.903126         0.475963        -1.965322
 H        -3.602688         0.594945        -1.275148
 H        -1.353370         2.668357        -1.607785
 H        -2.951137         3.051370        -1.242994
 H        -1.316329         3.211334         0.832418
