19
Iteration:  3033charge 0 multiplicity 1
 O         0.427530         0.810660         0.210854
 C        -0.825172         0.809104         0.662200
 C        -1.241554         0.944321         2.143896
 C        -2.518006         1.393344         1.351186
 O        -3.795057         1.585035         1.824149
 C        -2.184877         0.180445         0.271807
 C        -2.489002         0.674023        -1.178603
 C        -2.184219         2.269881        -0.925945
 C        -1.686632         2.286311         0.332135
 H         0.427814         0.530042        -0.670204
 H        -1.232105         0.121331         2.890069
 H        -0.711890         1.799581         2.560670
 H        -4.418146         1.102416         1.114573
 H        -2.240539        -0.905711         0.415369
 H        -1.857507         0.333671        -2.034733
 H        -3.534186         0.576184        -1.494437
 H        -1.590667         2.737622        -1.730743
 H        -3.267783         2.742191        -1.002296
 H        -1.138441         3.119103         0.835250
