19
Iteration:  2415
 O         0.426786         0.803116         0.110151
 C        -0.897906         0.884652         0.663807
 C        -1.251434         1.073475         2.096748
 C        -2.524926         1.348922         1.308806
 O        -3.833990         1.491714         1.825540
 C        -2.144414         0.268044         0.244818
 C        -2.630100         0.713618        -1.113645
 C        -2.008261         2.258978        -1.034856
 C        -1.685030         2.240953         0.409685
 H         0.820460        -0.092834         0.468423
 H        -1.278563         0.049105         2.659842
 H        -0.629473         1.873519         2.606218
 H        -4.168703         0.569499         2.236746
 H        -2.246153        -0.736600         0.640765
 H        -2.255314         0.029968        -1.875602
 H        -3.645506         0.876516        -1.161133
 H        -1.192026         2.437893        -1.782620
 H        -2.890928         2.857103        -1.165132
 H        -1.297192         3.138148         0.801366
