19
Iteration:  3235
 O         0.524006         0.676549         0.237380
 C        -0.819729         1.029271         0.601382
 C        -1.301255         0.841984         2.175966
 C        -2.515401         1.274286         1.358381
 O        -3.807828         1.605291         1.844260
 C        -2.012353         0.215787         0.144245
 C        -2.577053         0.732260        -1.142413
 C        -2.198372         2.251592        -1.040724
 C        -1.781523         2.358214         0.478475
 H         0.296807         0.166831        -0.585168
 H        -1.081047        -0.106263         2.669130
 H        -0.945765         1.651622         2.826765
 H        -4.325228         1.510347         1.057214
 H        -2.003944        -0.852831         0.467996
 H        -2.241337         0.393077        -2.134780
 H        -3.674184         0.583780        -1.218416
 H        -1.353942         2.502700        -1.701913
 H        -3.052798         2.974351        -1.157821
 H        -1.602388         3.400727         0.889761
