19
Iteration:  2405
 O         0.438912         0.816269         0.100490
 C        -0.823509         0.925121         0.630470
 C        -1.180027         1.063476         2.146328
 C        -2.559048         1.314113         1.338654
 O        -3.905573         1.520800         1.848388
 C        -2.211837         0.179137         0.238124
 C        -2.618883         0.766409        -1.133736
 C        -2.089324         2.219916        -1.080258
 C        -1.599669         2.236583         0.419004
 H         0.903897         0.074014         0.535060
 H        -1.221259         0.248491         2.915462
 H        -0.794574         1.984654         2.681146
 H        -4.166776         0.567819         2.195782
 H        -2.459734        -0.870709         0.405062
 H        -2.237816         0.247938        -1.986170
 H        -3.672008         0.686808        -1.190199
 H        -1.104017         2.373051        -1.593875
 H        -2.688691         3.019286        -1.479187
 H        -1.110886         3.000113         0.936379
