19
Iteration:  1124
 O         0.319708         0.725144         0.169962
 C        -0.929284         0.890673         0.628947
 C        -1.304843         1.034492         2.113452
 C        -2.496372         1.249021         1.254333
 O        -3.710558         1.616903         1.886453
 C        -2.123736         0.188240         0.186978
 C        -2.390970         0.784149        -1.195242
 C        -2.185718         2.270387        -0.950503
 C        -1.758239         2.215208         0.459714
 H         0.363524         0.168844        -0.642176
 H        -1.381859         0.236149         2.765300
 H        -0.830303         1.891655         2.715818
 H        -3.698850         1.056919         2.588776
 H        -2.216328        -0.876162         0.395786
 H        -1.641716         0.452913        -2.004951
 H        -3.408606         0.542141        -1.671139
 H        -1.373762         2.667182        -1.612401
 H        -3.087271         2.942011        -0.996513
 H        -1.206679         3.035710         0.899749
