19
Iteration:   324charge 0 multiplicity 1
 O         0.485066         0.700381         0.256463
 C        -0.827845         0.991351         0.600306
 C        -1.297332         0.983031         2.073723
 C        -2.527238         1.292012         1.282887
 O        -3.810785         1.496261         1.891945
 C        -2.133003         0.187385         0.207039
 C        -2.555282         0.731240        -1.154112
 C        -2.209020         2.260362        -0.998894
 C        -1.686649         2.274019         0.386175
 H         0.549911         0.896763        -0.719879
 H        -1.409429        -0.020714         2.560815
 H        -0.964746         1.689304         2.818503
 H        -3.709921         2.338848         2.439104
 H        -2.251669        -0.916135         0.483537
 H        -1.910674         0.321570        -1.955143
 H        -3.570349         0.501479        -1.545746
 H        -1.415528         2.566476        -1.713474
 H        -3.117315         2.851751        -1.119883
 H        -1.153446         3.156648         0.928413
