19
Iteration:  2682charge 0 multiplicity 1
 O         0.483563         0.519464         0.299127
 C        -0.819058         1.064247         0.590940
 C        -1.213790         1.042356         2.027709
 C        -2.491847         1.322931         1.230266
 O        -3.815576         1.618822         1.819680
 C        -2.067969         0.215388         0.292663
 C        -2.471690         0.705223        -1.111332
 C        -2.301599         2.216531        -1.035894
 C        -1.753435         2.375042         0.467694
 H         0.361607         0.731115        -0.709303
 H        -1.082220        -0.015288         2.431616
 H        -1.003318         1.825447         2.796257
 H        -3.998015         0.697594         2.272525
 H        -2.223533        -0.885325         0.354700
 H        -1.937540         0.097978        -1.887225
 H        -3.540524         0.388204        -1.448190
 H        -1.644352         2.732288        -1.716863
 H        -3.339978         2.675388        -1.098514
 H        -1.839361         3.415750         0.877486
