19
Iteration:   771charge 0 multiplicity 1
 O         0.425284         0.776491         0.201428
 C        -0.864764         0.986574         0.654246
 C        -1.309375         0.855996         2.126918
 C        -2.481833         1.303315         1.297905
 O        -3.725319         1.573980         1.793248
 C        -2.170708         0.257469         0.238372
 C        -2.517607         0.747174        -1.156305
 C        -2.261022         2.289373        -0.996496
 C        -1.616969         2.266662         0.370027
 H         0.494540         0.145051        -0.592975
 H        -1.423566        -0.165336         2.434149
 H        -0.803622         1.508703         2.780912
 H        -3.895762         1.009370         2.651026
 H        -2.338600        -0.833137         0.565461
 H        -1.804680         0.173298        -1.746474
 H        -3.615617         0.603583        -1.406097
 H        -1.555429         2.860320        -1.648712
 H        -3.353146         2.670666        -0.863958
 H        -1.232909         3.124664         0.804190
