19
Iteration:  1736charge 0 multiplicity 1
 O         0.452221         0.819400         0.110104
 C        -0.795622         0.985350         0.663866
 C        -1.245326         0.967949         2.143956
 C        -2.517560         1.401572         1.385564
 O        -3.848110         1.587951         1.797166
 C        -2.109700         0.236075         0.330570
 C        -2.572519         0.645760        -1.118678
 C        -2.230927         2.208845        -1.081560
 C        -1.647570         2.256008         0.378797
 H         0.493996        -0.163040        -0.008151
 H        -1.338743        -0.140666         2.502527
 H        -0.799843         1.547660         3.000907
 H        -4.184517         0.768971         2.248279
 H        -2.207913        -0.854173         0.538330
 H        -1.977254         0.155915        -1.903876
 H        -3.639301         0.457134        -1.418381
 H        -1.294505         2.310655        -1.759797
 H        -3.026247         2.942493        -1.368328
 H        -1.260933         3.229000         0.533355
