19
Iteration:  4062
 O         0.492405         0.732637         0.230700
 C        -0.755286         1.007595         0.665340
 C        -1.154113         0.930410         2.161054
 C        -2.481855         1.309290         1.355531
 O        -3.877044         1.690363         1.663539
 C        -2.135015         0.220148         0.281498
 C        -2.604621         0.666665        -1.088081
 C        -2.256336         2.203836        -1.000465
 C        -1.725550         2.251099         0.424849
 H         0.583826         0.518389        -0.652926
 H        -1.264951        -0.059285         2.628530
 H        -0.803917         1.684860         2.853464
 H        -4.352520         0.947257         1.333852
 H        -1.992459        -0.901447         0.343675
 H        -1.996343         0.213190        -1.832708
 H        -3.563002         0.307309        -1.501738
 H        -1.476424         2.496260        -1.696494
 H        -3.105137         2.907935        -1.024621
 H        -1.519740         3.231794         0.962290
