19
Iteration:  1899charge 0 multiplicity 1
 O         0.414304         0.836120         0.069086
 C        -0.845564         0.944449         0.715104
 C        -1.204319         0.965302         2.207965
 C        -2.510086         1.343821         1.355419
 O        -3.899191         1.610167         1.812247
 C        -2.063147         0.209135         0.232773
 C        -2.587043         0.685737        -1.139722
 C        -2.141754         2.167524        -1.096913
 C        -1.647720         2.285818         0.418316
 H         0.820140        -0.082959         0.253737
 H        -1.357619         0.004856         2.677742
 H        -0.730056         1.652477         2.859214
 H        -4.183431         0.770187         2.402454
 H        -2.222624        -0.833240         0.344225
 H        -2.291789         0.116412        -2.044700
 H        -3.692134         0.625338        -1.278099
 H        -1.297830         2.401960        -1.773971
 H        -2.920126         2.892305        -1.343408
 H        -1.372140         3.277450         0.793422
