19
Iteration:  4535charge 0 multiplicity 1
 O         0.569237         0.617571         0.443976
 C        -0.821271         1.056367         0.666472
 C        -1.176660         1.229042         2.066351
 C        -2.505330         1.332057         1.254979
 O        -3.808066         1.469245         1.754086
 C        -2.100609         0.250505         0.317814
 C        -2.561063         0.575784        -1.032990
 C        -2.380891         2.128562        -1.167868
 C        -1.775560         2.327195         0.186046
 H         0.819723         0.700569        -0.416059
 H        -1.172481         0.368660         2.772259
 H        -0.748712         2.119883         2.669371
 H        -3.795358         2.040682         2.560578
 H        -2.305434        -0.833728         0.562627
 H        -1.950016        -0.034412        -1.680176
 H        -3.652755         0.287222        -1.231807
 H        -1.655437         2.331155        -1.935725
 H        -3.411797         2.667864        -1.231240
 H        -1.447081         3.335149         0.585165
