19
Iteration:  4074charge 0 multiplicity 1
 O         0.482006         0.712503         0.197351
 C        -0.851460         0.953183         0.674886
 C        -1.158781         0.912958         2.213904
 C        -2.537144         1.379586         1.287228
 O        -3.817707         1.612711         1.648242
 C        -2.059098         0.207177         0.308325
 C        -2.529597         0.612825        -1.086726
 C        -2.286014         2.228164        -0.983807
 C        -1.713503         2.347796         0.473210
 H         0.379882         0.885124        -0.839149
 H        -1.276613        -0.127483         2.563500
 H        -0.668663         1.514527         2.931879
 H        -4.419333         1.459086         0.870111
 H        -2.323401        -0.808480         0.737373
 H        -1.988068         0.160477        -1.857698
 H        -3.618661         0.445100        -1.075827
 H        -1.569198         2.587793        -1.706230
 H        -3.206103         2.786231        -1.243635
 H        -1.305378         3.368747         0.764973
