19
Iteration:  2244charge 0 multiplicity 1
 O         0.362027         0.862933         0.058247
 C        -0.845508         0.969005         0.748889
 C        -1.129709         0.996845         2.216045
 C        -2.569588         1.297600         1.292612
 O        -3.866751         1.617827         1.901106
 C        -2.186367         0.219671         0.185981
 C        -2.549959         0.742104        -1.173762
 C        -2.042049         2.119244        -1.048957
 C        -1.633694         2.161792         0.404011
 H         0.883921         0.037267         0.184249
 H        -1.239621         0.130381         2.832107
 H        -0.794377         1.884471         2.811637
 H        -4.497641         0.814152         1.747721
 H        -2.225775        -0.871469         0.349963
 H        -2.133784         0.166622        -2.022788
 H        -3.725649         0.777396        -1.356214
 H        -1.320906         2.491491        -1.809465
 H        -2.891366         2.819971        -1.125709
 H        -1.497030         3.165590         0.852443
