19
Iteration:  1206charge 0 multiplicity 1
 O         0.533015         0.766801         0.126230
 C        -0.776332         0.920092         0.676774
 C        -1.209690         0.980338         2.178648
 C        -2.487241         1.209832         1.367187
 O        -3.824920         1.638123         1.609055
 C        -2.166467         0.185971         0.184471
 C        -2.778087         0.793116        -1.097507
 C        -2.263554         2.225735        -0.925514
 C        -1.580819         2.172771         0.445284
 H         1.227804         1.116463         0.823867
 H        -0.974960         0.075268         2.885558
 H        -0.874771         1.879008         2.589532
 H        -4.310157         0.905424         1.893777
 H        -2.343397        -0.909859         0.333868
 H        -2.387606         0.374004        -2.025582
 H        -3.859005         0.719946        -1.065687
 H        -1.599840         2.442320        -1.834193
 H        -2.947892         3.115839        -0.826737
 H        -1.112388         3.120561         0.809124
