19
Iteration:  2335charge 0 multiplicity 1
 O         0.592116         0.854112         0.208861
 C        -0.766375         0.917560         0.667705
 C        -1.262834         0.897339         2.153000
 C        -2.502014         1.245872         1.277212
 O        -3.756062         1.744330         1.703456
 C        -2.231525         0.225208         0.243972
 C        -2.549262         0.682094        -1.248192
 C        -2.376702         2.232475        -0.984251
 C        -1.669644         2.197483         0.446464
 H         0.699392        -0.204170         0.300528
 H        -1.158360        -0.066898         2.814742
 H        -0.946987         1.734440         2.842067
 H        -3.969839         1.037628         2.459544
 H        -2.270079        -0.843283         0.597147
 H        -2.063805         0.053372        -2.068366
 H        -3.625196         0.555000        -1.326580
 H        -1.983210         2.768107        -1.833189
 H        -3.405777         2.707314        -0.838014
 H        -1.343576         3.096032         1.083815
