19
Iteration:  1355charge 0 multiplicity 1
 O         0.529739         0.716049         0.248994
 C        -0.771293         0.972578         0.689837
 C        -1.103108         0.984945         2.146289
 C        -2.499029         1.236775         1.291554
 O        -3.793500         1.611171         1.649858
 C        -2.216182         0.182162         0.258377
 C        -2.731078         0.781835        -1.101918
 C        -2.310257         2.234394        -0.984831
 C        -1.623700         2.169442         0.365022
 H         0.902037         1.516806        -0.108001
 H        -0.992639         0.137215         2.846885
 H        -0.800270         2.043110         2.778802
 H        -4.195844         0.847597         2.104094
 H        -2.299678        -0.896321         0.405223
 H        -2.314394         0.371669        -2.065505
 H        -3.822805         0.574304        -1.152643
 H        -1.660195         2.584028        -1.778283
 H        -3.202027         2.839633        -0.955141
 H        -1.333031         3.169288         0.878071
