19
Iteration:  4990
 O         0.570418         0.870670         0.156825
 C        -0.827992         0.986126         0.626322
 C        -1.264506         1.188027         2.236216
 C        -2.544288         1.353098         1.315121
 O        -3.835424         1.628670         1.703247
 C        -2.131145         0.161207         0.400418
 C        -2.572425         0.540391        -1.002308
 C        -2.305868         2.063076        -1.105884
 C        -1.664735         2.194648         0.351765
 H         0.964661         0.057638        -0.047682
 H        -1.315905         0.283227         2.867768
 H        -0.787486         2.136445         2.706227
 H        -4.492809         1.310050         1.087225
 H        -1.982584        -0.894933         0.564872
 H        -1.911931        -0.101128        -1.698381
 H        -3.569854         0.255482        -1.103646
 H        -1.514267         2.332739        -1.936995
 H        -3.125237         2.861746        -1.375877
 H        -1.292658         3.114301         0.630894
