19
Iteration:  3051charge 0 multiplicity 1
 O         0.519449         0.720951         0.261718
 C        -0.822474         1.003539         0.679589
 C        -1.247906         0.992732         2.163977
 C        -2.524208         1.310728         1.280484
 O        -3.751721         1.523141         1.853876
 C        -2.218926         0.265863         0.227819
 C        -2.575705         0.747060        -1.197616
 C        -2.259573         2.221560        -1.080018
 C        -1.620132         2.238071         0.434100
 H         0.598591         0.472197        -0.626176
 H        -1.372393         0.041098         2.736941
 H        -0.876072         1.826982         2.828560
 H        -4.461790         0.751589         1.711549
 H        -2.599307        -0.753064         0.476121
 H        -1.864786         0.226054        -1.903097
 H        -3.587100         0.554372        -1.565842
 H        -1.566741         2.714069        -1.866190
 H        -3.075760         2.919747        -1.213206
 H        -1.243201         3.162982         0.793228
