19
Iteration:  3276charge 0 multiplicity 1
 O         0.514001         0.825515         0.199438
 C        -0.851559         0.972893         0.669529
 C        -1.274389         0.913321         2.102060
 C        -2.485458         1.255490         1.382061
 O        -3.836408         1.530705         1.796332
 C        -2.256312         0.210836         0.265974
 C        -2.635742         0.773700        -1.150190
 C        -2.150102         2.230795        -0.963806
 C        -1.515704         2.251864         0.424481
 H         0.826295         0.586270        -0.736047
 H        -1.374022         0.022301         2.666120
 H        -0.869360         1.772296         2.679600
 H        -4.443741         1.324687         1.008137
 H        -2.628306        -0.782884         0.533464
 H        -1.951798         0.219252        -1.788393
 H        -3.649387         0.645848        -1.607761
 H        -1.555296         2.428293        -1.837389
 H        -3.128874         2.797110        -1.137051
 H        -1.030891         3.156546         0.850569
