19
Iteration:  4620charge 0 multiplicity 1
 O         0.444049         0.879557         0.134531
 C        -0.794917         0.982255         0.782616
 C        -1.199815         1.053583         2.221186
 C        -2.601914         1.360841         1.269599
 O        -3.855156         1.601816         1.646885
 C        -2.064611         0.179233         0.427554
 C        -2.487292         0.522824        -1.016509
 C        -2.203584         2.045370        -1.103381
 C        -1.700528         2.261162         0.334944
 H         0.138495         0.744033        -0.888211
 H        -1.048742         0.043656         2.609185
 H        -0.856925         1.908404         2.762463
 H        -4.145255         2.468333         1.886626
 H        -2.210357        -0.770997         0.993739
 H        -2.085849        -0.256742        -1.740579
 H        -3.595357         0.272685        -1.257517
 H        -1.532855         2.341235        -1.948159
 H        -3.107053         2.563801        -1.363263
 H        -1.342972         3.295186         0.764311
