19
Iteration:  2427charge 0 multiplicity 1
 O         0.389077         0.750943         0.137533
 C        -0.804103         1.042203         0.670688
 C        -1.316636         0.933118         2.142014
 C        -2.512829         1.351019         1.285404
 O        -3.736922         1.506774         1.778371
 C        -2.152574         0.250546         0.297770
 C        -2.589690         0.734224        -1.094092
 C        -2.113905         2.180574        -1.056312
 C        -1.690726         2.350500         0.386793
 H         0.670253        -0.210948         0.242207
 H        -1.272659        -0.084045         2.649960
 H        -0.908879         1.761877         2.814538
 H        -3.913731         0.680836         2.164779
 H        -2.272366        -0.795769         0.559816
 H        -2.265789         0.160443        -1.931813
 H        -3.637214         0.661162        -1.155119
 H        -1.308368         2.546906        -1.745975
 H        -2.882598         2.917360        -1.261283
 H        -1.476786         3.315619         0.727787
