19
Iteration:  1095charge 0 multiplicity 1
 O         0.535060         0.702041         0.100243
 C        -0.782773         0.988472         0.627113
 C        -1.253784         0.844925         2.154217
 C        -2.521615         1.252397         1.349692
 O        -3.907009         1.657117         1.843139
 C        -2.132646         0.345247         0.224887
 C        -2.509622         0.755450        -1.173806
 C        -2.240862         2.231857        -1.058440
 C        -1.720273         2.285410         0.458455
 H         0.707727        -0.176616        -0.047311
 H        -1.316393        -0.196412         2.626855
 H        -0.855574         1.512833         2.938058
 H        -4.099725         0.960772         2.579351
 H        -2.258742        -0.703295         0.400919
 H        -1.903712         0.241685        -1.928575
 H        -3.546368         0.669145        -1.327193
 H        -1.447607         2.623525        -1.791842
 H        -3.215484         2.811723        -1.070346
 H        -1.174734         3.249341         0.846374
