19
Iteration:  2070charge 0 multiplicity 1
 O         0.467965         0.913394         0.099556
 C        -0.825261         0.921850         0.684647
 C        -1.249435         0.934208         2.134688
 C        -2.613727         1.279898         1.224068
 O        -3.798623         1.656436         1.888000
 C        -2.185926         0.165400         0.256035
 C        -2.600357         0.689632        -1.119337
 C        -2.082723         2.222185        -1.090812
 C        -1.691583         2.244869         0.438939
 H         0.792307         0.005574         0.249380
 H        -1.212480        -0.014615         2.743094
 H        -0.685044         1.844149         2.561030
 H        -4.433130         0.930275         2.194402
 H        -2.188322        -0.930556         0.405952
 H        -1.994137         0.192266        -1.832898
 H        -3.594008         0.397715        -1.110170
 H        -1.213963         2.213104        -1.688109
 H        -2.926802         2.876820        -1.406175
 H        -1.268537         3.061876         1.050760
