19
Iteration:  3918
 O         0.442613         0.817889         0.160825
 C        -0.884905         0.885902         0.660809
 C        -1.169020         0.827654         2.126578
 C        -2.495660         1.371963         1.353950
 O        -3.814693         1.655928         1.739224
 C        -2.176036         0.251008         0.254992
 C        -2.533752         0.690580        -1.171132
 C        -2.203731         2.230362        -1.001020
 C        -1.692707         2.298671         0.472216
 H         0.746129         0.205239         0.770746
 H        -1.339939        -0.135438         2.527339
 H        -0.466370         1.516032         2.640165
 H        -4.335287         0.891916         1.384739
 H        -2.172045        -0.805000         0.623950
 H        -2.072478         0.202791        -2.009527
 H        -3.577032         0.412747        -1.345172
 H        -1.629674         2.615735        -1.869902
 H        -3.111188         2.815477        -1.034329
 H        -1.219317         3.212218         0.864404
