19
Iteration:  2444charge 0 multiplicity 1
 O         0.509202         0.748497         0.120824
 C        -0.777978         1.032484         0.705949
 C        -1.249766         0.936566         2.233945
 C        -2.517789         1.276784         1.351487
 O        -3.853372         1.629288         1.779694
 C        -2.056566         0.293934         0.198383
 C        -2.612331         0.685129        -1.140598
 C        -2.264457         2.252201        -1.076319
 C        -1.670555         2.269309         0.428241
 H         0.371093        -0.303523         0.043727
 H        -1.320249        -0.136237         2.368929
 H        -0.939910         1.606820         3.012259
 H        -4.266265         0.924012         2.324783
 H        -2.068504        -0.787837         0.503260
 H        -1.961035         0.125275        -1.953173
 H        -3.701230         0.373801        -1.414636
 H        -1.514397         2.249947        -1.872256
 H        -3.090169         2.910226        -1.436573
 H        -1.205454         3.226351         0.912729
