19
Iteration:  1191
 O         0.468407         0.720982         0.163092
 C        -0.791166         0.917478         0.687851
 C        -1.255073         0.953547         2.193713
 C        -2.435150         1.249054         1.243456
 O        -3.672721         1.631007         1.663729
 C        -2.139357         0.163386         0.255257
 C        -2.755881         0.819278        -1.133332
 C        -2.261016         2.273492        -0.954003
 C        -1.683718         2.181647         0.418443
 H         0.991672         1.535980         0.380707
 H        -1.360915         0.102269         2.732966
 H        -0.900089         1.697672         2.962212
 H        -4.265030         0.786037         1.901509
 H        -2.188324        -0.857372         0.518785
 H        -2.270882         0.259179        -2.018026
 H        -3.878533         0.695551        -1.180774
 H        -1.390938         2.558745        -1.613175
 H        -3.157995         2.916961        -1.130583
 H        -1.446470         3.149772         0.982527
