19
Iteration:  4554charge 0 multiplicity 1
 O         0.505831         0.702801         0.429452
 C        -0.866234         1.063696         0.639224
 C        -1.285561         1.169771         2.144310
 C        -2.444334         1.502238         1.316159
 O        -3.768552         1.422410         1.785699
 C        -2.101431         0.255455         0.356442
 C        -2.605847         0.501018        -1.157471
 C        -2.369133         2.077728        -1.151027
 C        -1.627747         2.304719         0.202737
 H         0.576555         0.509809        -0.449318
 H        -1.107442         0.156470         2.457787
 H        -0.875507         1.987054         2.675229
 H        -3.864278         2.212858         2.398451
 H        -2.029413        -0.758015         0.757472
 H        -1.971600         0.090342        -1.958489
 H        -3.583955         0.177347        -1.595372
 H        -1.718384         2.381141        -2.003196
 H        -3.304537         2.579106        -1.148442
 H        -1.312973         3.334062         0.539768
