19
Iteration:  4616
 O         0.402711         0.883536         0.133140
 C        -0.806480         0.979777         0.776658
 C        -1.188220         1.048711         2.207554
 C        -2.560972         1.340755         1.285072
 O        -3.861585         1.617158         1.631110
 C        -2.054074         0.200929         0.402022
 C        -2.486981         0.508042        -1.056318
 C        -2.208944         1.989496        -1.071556
 C        -1.708369         2.283848         0.348916
 H         0.176501         0.720444        -0.715160
 H        -0.943881         0.083691         2.772717
 H        -0.887929         1.941705         2.774042
 H        -4.002697         2.570922         1.915846
 H        -2.205709        -0.684242         0.980822
 H        -1.987393        -0.171225        -1.810915
 H        -3.548667         0.395129        -1.132694
 H        -1.532053         2.350852        -1.881415
 H        -3.083655         2.569386        -1.391321
 H        -1.473362         3.166244         0.861068
