19
Iteration:   683charge 0 multiplicity 1
 O         0.413122         0.740414        -0.025337
 C        -0.813118         0.906900         0.666591
 C        -1.211324         0.876438         2.140486
 C        -2.522399         1.366270         1.331975
 O        -3.916326         1.459521         1.753989
 C        -2.133136         0.199836         0.309103
 C        -2.592556         0.747106        -1.072995
 C        -2.128513         2.279333        -0.971587
 C        -1.598409         2.303523         0.468639
 H         1.034327         1.179764         0.574060
 H        -1.175729        -0.132394         2.617713
 H        -0.673858         1.605486         2.794882
 H        -4.230422         2.477124         1.681667
 H        -2.465771        -0.909077         0.532527
 H        -2.137802         0.201535        -1.925349
 H        -3.720695         0.749430        -1.109062
 H        -1.318010         2.587990        -1.727901
 H        -3.142338         2.885806        -1.109010
 H        -1.128683         3.164640         0.848480
