19
Iteration:  3587charge 0 multiplicity 1
 O         0.504016         0.611491         0.208659
 C        -0.748386         0.963945         0.652671
 C        -1.295936         1.024429         2.137459
 C        -2.594218         1.332529         1.273257
 O        -3.842969         1.362224         1.946892
 C        -2.283148         0.293999         0.193408
 C        -2.581181         0.760030        -1.158697
 C        -2.181319         2.275216        -1.081598
 C        -1.541709         2.322365         0.404054
 H         1.072772         1.495133         0.267253
 H        -1.286548        -0.054301         2.532194
 H        -0.812447         1.704106         2.812467
 H        -4.535856         1.916817         1.322703
 H        -2.347089        -0.774434         0.527605
 H        -1.773236         0.392752        -1.919062
 H        -3.666910         0.477234        -1.441829
 H        -1.601838         2.613853        -1.970407
 H        -3.038111         2.975494        -1.073083
 H        -0.878639         3.161812         0.725827
