19
Iteration:  3027
 O         0.423937         0.794021         0.182594
 C        -0.883281         0.868106         0.654606
 C        -1.219800         0.937972         2.144127
 C        -2.513182         1.371877         1.331336
 O        -3.826553         1.607100         1.811086
 C        -2.108494         0.154402         0.240464
 C        -2.468387         0.689147        -1.110640
 C        -2.236439         2.238498        -0.965222
 C        -1.669166         2.259839         0.432423
 H         0.552552         0.554601        -0.775152
 H        -1.337689         0.116391         2.849310
 H        -0.674531         1.774013         2.629817
 H        -4.516297         1.387249         1.157408
 H        -2.278108        -0.934222         0.356553
 H        -1.815332         0.366983        -1.919568
 H        -3.500479         0.541012        -1.493126
 H        -1.596740         2.743159        -1.702051
 H        -3.108815         2.803662        -1.090089
 H        -1.096995         3.165342         0.687233
