19
Iteration:  1108charge 0 multiplicity 1
 O         0.467009         0.716443         0.103695
 C        -0.821539         0.962864         0.701364
 C        -1.270594         0.952634         2.178979
 C        -2.570626         1.291408         1.356952
 O        -3.844901         1.638665         1.897598
 C        -2.128982         0.167383         0.147542
 C        -2.479509         0.743420        -1.272613
 C        -2.202187         2.304059        -0.992306
 C        -1.652373         2.257292         0.437972
 H         0.245748        -0.212822        -0.324377
 H        -1.108795        -0.098909         2.676877
 H        -0.960916         1.818235         2.692588
 H        -4.047931         1.132960         2.654493
 H        -2.170313        -0.945756         0.361109
 H        -1.856378         0.287273        -2.021092
 H        -3.470653         0.470209        -1.558648
 H        -1.513546         2.788526        -1.672398
 H        -3.100342         2.874848        -1.150476
 H        -1.459316         3.236730         0.937676
