19
Iteration:  3807
 O         0.397220         0.851574         0.017460
 C        -0.800755         0.956565         0.685245
 C        -1.365873         0.923216         2.224502
 C        -2.535982         1.198768         1.370445
 O        -3.870768         1.573855         1.765589
 C        -2.070684         0.142799         0.229198
 C        -2.551913         0.767820        -1.124804
 C        -2.106938         2.252847        -1.001569
 C        -1.649224         2.231464         0.505175
 H         0.807871        -0.033128        -0.313928
 H        -1.293095         0.044807         2.820629
 H        -0.793861         1.723838         2.740493
 H        -3.988139         2.481382         1.393933
 H        -2.054388        -0.872648         0.604385
 H        -2.081955         0.183060        -1.953864
 H        -3.624134         0.602107        -1.202910
 H        -1.278576         2.542427        -1.691199
 H        -2.956145         2.876307        -1.124136
 H        -1.191197         3.136622         0.850708
