19
Iteration:  2190charge 0 multiplicity 1
 O         0.545559         0.809268         0.185632
 C        -0.746875         0.987660         0.736859
 C        -1.209121         0.892381         2.177484
 C        -2.513519         1.320925         1.294746
 O        -3.814060         1.637853         1.715650
 C        -2.119861         0.212018         0.201209
 C        -2.710600         0.652169        -1.167707
 C        -2.271898         2.212755        -1.006086
 C        -1.649873         2.281851         0.398148
 H         0.954632        -0.038813         0.410605
 H        -1.369626        -0.143386         2.412168
 H        -0.932947         1.693823         2.917273
 H        -4.075042         0.836358         2.240621
 H        -2.447365        -0.727463         0.701262
 H        -2.402313         0.273120        -2.145500
 H        -3.799322         0.552414        -1.145630
 H        -1.583745         2.560930        -1.748633
 H        -3.059822         2.999312        -1.094790
 H        -1.320103         3.306041         0.721188
