19
Iteration:  2445charge 0 multiplicity 1
 O         0.514157         0.745939         0.122154
 C        -0.771961         1.026332         0.700661
 C        -1.252860         0.936022         2.230250
 C        -2.529134         1.276914         1.361318
 O        -3.860430         1.636231         1.780046
 C        -2.049336         0.293030         0.202125
 C        -2.615958         0.682028        -1.146650
 C        -2.265993         2.251593        -1.071665
 C        -1.674806         2.266093         0.431048
 H         0.409142        -0.261486         0.013767
 H        -1.289895        -0.176787         2.388692
 H        -0.899318         1.625349         3.009139
 H        -4.250722         0.986121         2.294081
 H        -2.047820        -0.786580         0.484969
 H        -1.961442         0.115059        -1.969057
 H        -3.666821         0.357053        -1.419261
 H        -1.526091         2.300789        -1.900456
 H        -3.084601         2.921141        -1.400857
 H        -1.218798         3.210095         0.889832
