19
Iteration:  4695charge 0 multiplicity 1
 O         0.595445         0.734087         0.418321
 C        -0.767197         1.101595         0.706534
 C        -1.214568         1.186462         2.093194
 C        -2.510158         1.377418         1.208411
 O        -3.851603         1.520270         1.788039
 C        -2.128996         0.231453         0.246234
 C        -2.655454         0.479897        -1.090409
 C        -2.322043         2.058377        -1.115451
 C        -1.699427         2.303345         0.235388
 H         0.644296         0.641260        -0.530133
 H        -1.233446         0.244002         2.706941
 H        -0.930071         2.074256         2.649986
 H        -3.780978         1.849679         2.728225
 H        -2.150356        -0.813045         0.627563
 H        -2.202356        -0.091086        -1.979912
 H        -3.714259         0.172332        -1.288265
 H        -1.479808         2.266436        -1.902307
 H        -3.219517         2.656893        -1.119729
 H        -1.258295         3.241002         0.713159
