19
Iteration:   900
 O         0.545604         0.827212         0.187736
 C        -0.787284         0.897491         0.636336
 C        -1.193456         0.921771         2.167334
 C        -2.513086         1.247312         1.320973
 O        -3.801561         1.605100         1.748327
 C        -2.155328         0.183677         0.166670
 C        -2.701266         0.822847        -1.131050
 C        -2.255296         2.290571        -0.999245
 C        -1.679807         2.209139         0.419824
 H         1.011022         0.021547         0.303273
 H        -1.323069        -0.091096         2.747064
 H        -0.762116         1.719588         2.770988
 H        -4.101016         1.042955         2.458279
 H        -2.336444        -0.944519         0.253973
 H        -2.327140         0.312802        -2.053411
 H        -3.831973         0.652146        -1.132535
 H        -1.593957         2.572876        -1.808050
 H        -3.034947         3.004648        -1.058295
 H        -1.175164         3.100985         0.876391
