19
Iteration:   689
 O         0.409395         0.721606         0.010977
 C        -0.829555         0.909311         0.647367
 C        -1.198830         0.880000         2.163757
 C        -2.467397         1.414916         1.408669
 O        -3.854263         1.437864         1.717743
 C        -2.170239         0.205878         0.268421
 C        -2.621818         0.771663        -1.110854
 C        -2.145163         2.252784        -0.989683
 C        -1.603063         2.288038         0.448904
 H         0.996110         1.374231         0.585574
 H        -1.231114        -0.081034         2.674044
 H        -0.800305         1.552428         2.940718
 H        -4.329609         2.243709         1.667743
 H        -2.429921        -0.726329         0.673756
 H        -2.299157         0.162622        -1.970293
 H        -3.703990         0.717556        -1.188974
 H        -1.474504         2.647363        -1.724227
 H        -2.973422         2.851253        -1.122045
 H        -1.202819         3.196230         1.065212
