19
Iteration:  1418charge 0 multiplicity 1
 O         0.401012         0.682893         0.033857
 C        -0.833050         1.048798         0.604594
 C        -1.259092         0.942769         2.173204
 C        -2.489394         1.349850         1.362806
 O        -3.816111         1.601980         1.798746
 C        -2.101697         0.271065         0.303002
 C        -2.500210         0.650776        -1.099001
 C        -2.253540         2.206596        -1.067182
 C        -1.700150         2.270595         0.410509
 H         1.065267         0.798068         0.754630
 H        -1.312130        -0.048908         2.621318
 H        -0.904869         1.582528         2.887364
 H        -4.113851         0.803885         2.275603
 H        -2.112777        -0.882029         0.536595
 H        -1.850340         0.238237        -1.817292
 H        -3.573447         0.561974        -1.315665
 H        -1.450528         2.571508        -1.728374
 H        -3.128865         2.857479        -1.229735
 H        -1.335368         3.251921         0.739380
