19
Iteration:  4608charge 0 multiplicity 1
 O         0.376486         0.870436         0.150841
 C        -0.839281         1.045148         0.712832
 C        -1.178393         1.071951         2.210574
 C        -2.468466         1.332028         1.326343
 O        -3.878942         1.636690         1.615649
 C        -2.076706         0.199828         0.357483
 C        -2.489194         0.462327        -1.079893
 C        -2.207586         1.977247        -1.044884
 C        -1.743113         2.249288         0.411934
 H         0.277234         0.633763        -0.729925
 H        -1.086874         0.254858         2.939409
 H        -0.865023         1.940299         2.727517
 H        -3.668440         2.565002         1.904467
 H        -2.158277        -0.850283         0.671551
 H        -1.870055         0.035846        -1.942594
 H        -3.604651         0.335011        -1.092236
 H        -1.342778         2.256231        -1.709615
 H        -3.077922         2.522229        -1.251493
 H        -1.534936         3.311606         0.796053
