19
Iteration:  4491charge 0 multiplicity 1
 O         0.471681         0.841046         0.221838
 C        -0.804614         1.001022         0.693980
 C        -1.281693         1.113227         2.165918
 C        -2.513197         1.339342         1.273878
 O        -3.785571         1.602802         1.634078
 C        -2.182630         0.152532         0.408348
 C        -2.542232         0.536793        -0.985508
 C        -2.240516         2.043178        -1.141244
 C        -1.657461         2.249935         0.318031
 H         0.398589         0.944293        -0.670573
 H        -1.041738         0.217052         2.770912
 H        -0.849701         1.907098         2.877383
 H        -3.836399         2.223973         2.400709
 H        -2.047933        -0.898873         0.773708
 H        -1.920971        -0.046010        -1.642022
 H        -3.631629         0.243958        -1.156844
 H        -1.633626         2.319473        -1.998276
 H        -3.298303         2.602612        -1.130659
 H        -1.446358         3.325097         0.587618
