19
Iteration:  4171charge 0 multiplicity 1
 O         0.503075         0.793381         0.097519
 C        -0.832318         1.017380         0.693918
 C        -1.323180         1.033407         2.208771
 C        -2.537415         1.360232         1.261801
 O        -3.811673         1.587748         1.902538
 C        -2.124226         0.218975         0.269380
 C        -2.516885         0.602543        -1.074737
 C        -2.155495         2.119546        -1.090191
 C        -1.738237         2.266378         0.317970
 H         1.064016         0.372990         0.859863
 H        -1.338781        -0.017768         2.627952
 H        -0.675044         1.738694         2.754348
 H        -4.450659         1.381952         1.196846
 H        -2.252002        -0.870771         0.421761
 H        -1.993598         0.016552        -1.861212
 H        -3.641150         0.550690        -1.264552
 H        -1.607974         2.549655        -1.909969
 H        -3.093592         2.692180        -1.278393
 H        -1.338775         3.246189         0.722893
