19
Iteration:  2963
 O         0.563974         0.764648         0.340493
 C        -0.809858         0.974916         0.597425
 C        -1.170045         0.997597         2.124690
 C        -2.545940         1.289907         1.308685
 O        -3.872885         1.470400         1.791113
 C        -2.272532         0.196119         0.242929
 C        -2.647009         0.730481        -1.160283
 C        -2.230230         2.238416        -1.040701
 C        -1.602709         2.233223         0.317130
 H         0.608505         0.800963        -0.601437
 H        -1.068037         0.130437         2.815887
 H        -0.735817         1.925357         2.631473
 H        -3.803699         2.143116         2.585936
 H        -2.327665        -0.847423         0.607739
 H        -2.009940         0.081948        -1.822879
 H        -3.677966         0.494311        -1.456723
 H        -1.485175         2.643081        -1.859427
 H        -3.082090         2.954421        -0.971697
 H        -1.138144         3.150123         0.600471
