19
Iteration:  4977charge 0 multiplicity 1
 O         0.559896         0.897643         0.240899
 C        -0.756724         0.963880         0.694878
 C        -1.266278         1.156054         2.117934
 C        -2.511807         1.344294         1.314545
 O        -3.858612         1.648544         1.775489
 C        -2.083227         0.157428         0.397337
 C        -2.608909         0.565302        -1.065186
 C        -2.257446         2.055325        -1.098251
 C        -1.692886         2.214897         0.244191
 H         0.566555        -0.102831        -0.108557
 H        -1.190835         0.314887         2.867740
 H        -0.889207         2.105742         2.575030
 H        -4.428392         1.003470         1.284187
 H        -2.307311        -0.788077         0.903967
 H        -2.076755         0.015456        -1.930506
 H        -3.634556         0.352378        -1.378382
 H        -1.526480         2.311453        -1.896326
 H        -3.260895         2.565020        -1.157358
 H        -1.338072         3.184704         0.629663
