19
Iteration:   671
 O         0.392373         0.747402        -0.046756
 C        -0.811618         0.969687         0.661787
 C        -1.217629         0.904061         2.136432
 C        -2.593218         1.215989         1.299329
 O        -3.923543         1.539205         1.791498
 C        -2.123404         0.264033         0.251516
 C        -2.529709         0.764120        -1.022433
 C        -2.143070         2.246078        -0.928508
 C        -1.649747         2.228582         0.451720
 H         1.305437         0.796801         0.470571
 H        -1.276440        -0.095772         2.646913
 H        -0.778286         1.680864         2.756090
 H        -3.848611         2.466425         1.855864
 H        -2.042772        -0.887711         0.535769
 H        -1.990021         0.261926        -1.868069
 H        -3.619244         0.504486        -1.255733
 H        -1.283917         2.459320        -1.699412
 H        -2.896502         3.156329        -1.150907
 H        -1.263201         3.126827         0.898070
