19
Iteration:  3581
 O         0.540417         0.607691         0.180713
 C        -0.801149         0.964045         0.679888
 C        -1.273062         0.987691         2.074092
 C        -2.644258         1.315182         1.321923
 O        -3.843759         1.390051         1.894797
 C        -2.244166         0.302723         0.253754
 C        -2.551168         0.766059        -1.151200
 C        -2.197349         2.266182        -1.076524
 C        -1.552331         2.295261         0.424361
 H         1.019176         1.414157         0.134367
 H        -1.065449         0.058056         2.598628
 H        -0.829994         1.842892         2.680889
 H        -4.340684         1.937158         1.300515
 H        -2.503705        -0.728218         0.501204
 H        -1.845419         0.308828        -1.788300
 H        -3.567758         0.783707        -1.478325
 H        -1.576599         2.688539        -1.889520
 H        -3.101860         2.905953        -1.190992
 H        -1.172991         3.214135         0.925719
