19
Iteration:  1136
 O         0.404768         0.710365         0.176336
 C        -0.872271         0.868750         0.667885
 C        -1.272982         0.932551         2.111146
 C        -2.546516         1.297814         1.322834
 O        -3.706538         1.583064         1.873713
 C        -2.244304         0.239823         0.207069
 C        -2.380763         0.769413        -1.191709
 C        -2.206273         2.290985        -1.009729
 C        -1.728076         2.294768         0.433027
 H         0.254902         0.546691        -0.852294
 H        -1.228771         0.059363         2.655673
 H        -0.964721         1.929265         2.591660
 H        -3.935267         1.044763         2.676933
 H        -2.398118        -0.799276         0.391108
 H        -1.596306         0.153472        -1.762856
 H        -3.404840         0.480971        -1.573707
 H        -1.395018         2.811544        -1.632064
 H        -3.192096         2.702467        -1.396036
 H        -1.296537         3.221808         0.930358
