19
Iteration:   440charge 0 multiplicity 1
 O         0.453219         0.605628         0.151140
 C        -0.809291         0.961101         0.653817
 C        -1.197657         0.939812         2.150384
 C        -2.520418         1.362512         1.356519
 O        -3.874287         1.514171         1.752534
 C        -2.066344         0.269145         0.225072
 C        -2.525916         0.736730        -1.164690
 C        -2.380225         2.291108        -0.997093
 C        -1.643725         2.283428         0.347239
 H         1.292104         0.759946         0.686829
 H        -1.206480         0.017359         2.738566
 H        -0.794471         1.713013         2.822006
 H        -3.894412         1.848940         2.690496
 H        -2.103582        -0.814661         0.533235
 H        -1.981819         0.284210        -2.026233
 H        -3.554022         0.525455        -1.402559
 H        -1.664850         2.790830        -1.692461
 H        -3.361637         2.822889        -1.069831
 H        -1.276227         3.174991         0.706072
