19
Iteration:  3312charge 0 multiplicity 1
 O         0.423443         0.568445         0.284296
 C        -0.763457         1.060650         0.590276
 C        -1.349161         1.008460         2.109653
 C        -2.541191         1.229090         1.306436
 O        -3.743336         1.518040         1.939853
 C        -2.026553         0.224999         0.165319
 C        -2.556199         0.726763        -1.184855
 C        -2.227997         2.259897        -1.024333
 C        -1.730746         2.377925         0.452193
 H         0.698392         1.023081        -0.595045
 H        -1.343619        -0.003125         2.544694
 H        -1.000903         1.694729         2.860342
 H        -4.410400         1.676695         1.221064
 H        -1.919450        -0.869900         0.351023
 H        -2.012616         0.337892        -2.070863
 H        -3.634012         0.579560        -1.344674
 H        -1.426317         2.496522        -1.745359
 H        -3.078299         2.865519        -1.381367
 H        -1.407746         3.327086         0.924854
