19
Iteration:    15
 O         0.481438         0.660653         0.062036
 C        -0.852229         1.037982         0.550949
 C        -1.250799         0.879105         2.090484
 C        -2.529392         1.221479         1.317481
 O        -3.941298         1.491347         1.811186
 C        -2.092432         0.224045         0.214678
 C        -2.596854         0.832633        -1.116405
 C        -2.076098         2.252877        -0.920490
 C        -1.752307         2.277818         0.536244
 H         1.210730         0.907891         0.812631
 H        -1.293294        -0.046986         2.560107
 H        -0.729011         1.752872         2.540991
 H        -3.892580         2.445320         2.214213
 H        -2.054228        -0.869149         0.337065
 H        -1.992908         0.406511        -1.906794
 H        -3.595706         0.758054        -1.476108
 H        -1.073212         2.390211        -1.626473
 H        -2.848493         2.992781        -1.290561
 H        -1.583063         3.279187         1.092621
