19
Iteration:  4427charge 0 multiplicity 1
 O         0.503634         0.743302         0.302745
 C        -0.839735         1.011474         0.718810
 C        -1.269358         1.243994         2.133218
 C        -2.547537         1.390252         1.242348
 O        -3.709011         1.517936         1.858569
 C        -2.124831         0.154466         0.309723
 C        -2.588923         0.535309        -1.150349
 C        -2.234263         2.031532        -1.106907
 C        -1.723645         2.248990         0.313788
 H         0.614461         0.840624        -0.584976
 H        -1.181975         0.461574         2.902395
 H        -1.059899         2.296652         2.534331
 H        -4.242738         2.255517         1.597876
 H        -2.222677        -0.925447         0.545418
 H        -2.005483        -0.098045        -1.857889
 H        -3.669729         0.298900        -1.184912
 H        -1.558441         2.377129        -1.850196
 H        -2.952256         2.810556        -1.447307
 H        -1.489293         3.275110         0.559888
