19
Iteration:  2586
 O         0.447084         0.769707         0.193896
 C        -0.796045         1.026605         0.729657
 C        -1.253250         0.891042         2.152245
 C        -2.492624         1.308151         1.308631
 O        -3.775049         1.619615         1.744779
 C        -2.119680         0.273438         0.284080
 C        -2.652769         0.676724        -1.091272
 C        -2.122636         2.180330        -1.095050
 C        -1.713682         2.246581         0.410196
 H         0.523201         1.017104        -0.790548
 H        -1.153627        -0.117972         2.498514
 H        -0.946435         1.641010         2.857460
 H        -4.131388         0.764546         2.224463
 H        -2.238263        -0.798392         0.575033
 H        -2.438445         0.044138        -1.913047
 H        -3.768582         0.722078        -1.128936
 H        -1.338485         2.283819        -1.860555
 H        -2.933999         2.862150        -1.386341
 H        -1.512502         3.297615         0.838294
