19
Iteration:  3294
 O         0.544600         0.696222         0.253054
 C        -0.879723         0.933478         0.708296
 C        -1.189262         0.903619         2.151595
 C        -2.523547         1.382124         1.275702
 O        -3.815370         1.503239         1.861359
 C        -2.164580         0.243865         0.217220
 C        -2.557328         0.738412        -1.154830
 C        -2.207327         2.302024        -1.060245
 C        -1.736144         2.255845         0.385220
 H         0.513890         0.763761        -0.770020
 H        -1.122396        -0.109801         2.665406
 H        -0.746825         1.721774         2.753879
 H        -4.508870         1.470139         1.134121
 H        -2.312947        -0.794258         0.581747
 H        -1.998170         0.238256        -1.975235
 H        -3.634470         0.554074        -1.201338
 H        -1.378746         2.744707        -1.688763
 H        -2.946487         3.080558        -1.103110
 H        -1.433688         3.195779         0.819723
