19
Iteration:  1989
 O         0.471255         0.743970         0.183357
 C        -0.756968         0.935017         0.689335
 C        -1.234509         0.963621         2.183756
 C        -2.423497         1.270946         1.351100
 O        -3.760428         1.664055         1.667110
 C        -2.114844         0.214162         0.226494
 C        -2.598893         0.734194        -1.156883
 C        -2.400236         2.235884        -0.967925
 C        -1.704109         2.258583         0.384322
 H         0.882803        -0.137747         0.313796
 H        -1.067450         0.176167         2.919331
 H        -0.951901         1.841013         2.777813
 H        -4.272861         0.948596         2.226215
 H        -2.218115        -0.862303         0.511264
 H        -1.990245         0.325800        -2.004603
 H        -3.516525         0.198245        -1.544387
 H        -1.730768         2.732515        -1.792803
 H        -3.265618         2.891852        -1.110671
 H        -1.442064         3.191442         0.878976
