19
Iteration:    93charge 0 multiplicity 1
 O         0.486282         0.691838         0.229685
 C        -0.865364         1.013827         0.642238
 C        -1.176577         0.897661         2.227314
 C        -2.490005         1.198099         1.348452
 O        -3.798229         1.520825         1.716263
 C        -2.084386         0.215028         0.165493
 C        -2.576905         0.799757        -1.190294
 C        -2.280195         2.320503        -0.972229
 C        -1.781733         2.270774         0.492263
 H         0.477331         0.028569        -0.584402
 H        -1.196266        -0.121061         2.641717
 H        -0.687035         1.646540         2.872496
 H        -3.775876         2.557399         1.943728
 H        -1.917221        -0.911739         0.111110
 H        -1.992324         0.418668        -2.047756
 H        -3.657486         0.693093        -1.364742
 H        -1.448683         2.582279        -1.791792
 H        -3.193231         2.979723        -1.102189
 H        -1.557012         3.302912         0.944978
