19
Iteration:   518charge 0 multiplicity 1
 O         0.427600         0.881233         0.083060
 C        -0.844101         0.991943         0.691872
 C        -1.245835         0.910521         2.117194
 C        -2.581902         1.275178         1.268679
 O        -3.743937         1.514095         1.764609
 C        -2.157784         0.254315         0.265983
 C        -2.606273         0.705309        -1.088556
 C        -2.121415         2.159000        -1.005751
 C        -1.685208         2.247969         0.485396
 H         0.540570         0.009245        -0.275325
 H        -1.421143        -0.098378         2.580583
 H        -0.965848         1.709575         2.811343
 H        -3.679619         2.396999         1.919207
 H        -2.226860        -0.859372         0.662812
 H        -2.053094         0.181716        -1.885950
 H        -3.712453         0.683687        -1.138637
 H        -1.242119         2.385639        -1.624123
 H        -3.000959         2.844387        -1.096217
 H        -1.267278         3.065962         0.972306
