19
Iteration:  1678charge 0 multiplicity 1
 O         0.538567         0.837642         0.193100
 C        -0.759449         0.899134         0.560359
 C        -1.202306         1.030674         2.173235
 C        -2.502720         1.270120         1.292677
 O        -3.781445         1.652508         1.650149
 C        -2.137947         0.149000         0.205614
 C        -2.714480         0.699800        -1.086838
 C        -2.302502         2.215783        -0.929170
 C        -1.645763         2.197486         0.434827
 H         0.931644         0.055871         0.670767
 H        -1.140742         0.207435         3.028443
 H        -0.918431         1.988639         2.580670
 H        -4.327410         1.017245         2.117358
 H        -2.235437        -0.823934         0.525775
 H        -2.321401         0.178232        -1.965627
 H        -3.800918         0.575652        -1.071208
 H        -1.627054         2.545678        -1.699459
 H        -3.161256         2.909250        -1.025205
 H        -1.323967         3.140206         0.836950
