19
Iteration:  4082charge 0 multiplicity 1
 O         0.446627         0.705843         0.163731
 C        -0.797638         0.984066         0.757548
 C        -1.275331         0.902585         2.163913
 C        -2.485448         1.385828         1.308639
 O        -3.829196         1.552408         1.667127
 C        -2.087648         0.228438         0.308641
 C        -2.486820         0.669196        -1.052831
 C        -2.277738         2.187569        -0.966652
 C        -1.678337         2.323852         0.400348
 H         0.426998         1.088267        -0.788045
 H        -1.170020        -0.109498         2.594783
 H        -0.681890         1.691619         2.729290
 H        -4.245212         1.865048         0.847323
 H        -2.281187        -0.688928         0.907901
 H        -2.170791         0.076293        -1.957631
 H        -3.562811         0.443801        -1.201953
 H        -1.646014         2.575186        -1.806378
 H        -3.251136         2.697853        -1.190571
 H        -1.225239         3.219643         0.856180
