19
Iteration:   886
 O         0.404834         0.816954         0.245519
 C        -0.891587         0.954970         0.626325
 C        -1.227100         0.940570         2.126656
 C        -2.427481         1.231849         1.300478
 O        -3.655729         1.593178         1.722547
 C        -2.092958         0.172181         0.104480
 C        -2.726871         0.817330        -1.130460
 C        -2.245744         2.243287        -0.968037
 C        -1.681229         2.224423         0.444514
 H         0.555101        -0.106643         0.710042
 H        -0.940446        -0.045519         2.672363
 H        -0.782145         1.875961         2.641325
 H        -3.988189         0.795881         2.211224
 H        -2.244357        -0.841225         0.357866
 H        -2.431109         0.432451        -2.105795
 H        -3.760375         0.854773        -1.028031
 H        -1.338559         2.461362        -1.569647
 H        -3.081887         2.932266        -1.115416
 H        -1.454455         3.244052         0.991925
