19
Iteration:   619
 O         0.543519         0.760080         0.181174
 C        -0.808437         1.020423         0.546903
 C        -1.331690         0.942778         2.072663
 C        -2.568189         1.318935         1.370992
 O        -3.861344         1.468577         1.918036
 C        -2.275571         0.244446         0.236225
 C        -2.520638         0.751976        -1.159683
 C        -2.276193         2.248655        -1.040746
 C        -1.531893         2.272220         0.329862
 H         0.794786        -0.241105         0.348353
 H        -1.097264        -0.080032         2.471081
 H        -0.784279         1.614071         2.807688
 H        -3.728758         1.916500         2.824125
 H        -2.364006        -0.823878         0.645830
 H        -1.691113         0.349310        -1.743506
 H        -3.372983         0.428014        -1.786229
 H        -1.768248         2.726065        -1.856284
 H        -3.172745         2.912434        -0.946790
 H        -0.985355         3.122750         0.680392
