19
Iteration:   995
 O         0.401579         0.779584         0.102413
 C        -0.890359         0.928982         0.693097
 C        -1.245437         0.876035         2.215613
 C        -2.485254         1.364278         1.327776
 O        -3.752618         1.541706         1.879013
 C        -2.178889         0.223229         0.247188
 C        -2.524634         0.727414        -1.205868
 C        -2.224885         2.330305        -1.071016
 C        -1.606326         2.311440         0.367050
 H         0.484357        -0.163986         0.351417
 H        -1.470204        -0.119256         2.409945
 H        -0.915181         1.590664         2.992928
 H        -4.178729         0.570845         2.030918
 H        -2.342436        -0.760036         0.566777
 H        -1.820238         0.300842        -1.946855
 H        -3.497694         0.478541        -1.467848
 H        -1.501178         2.780728        -1.845583
 H        -3.179585         2.966460        -1.178585
 H        -1.090633         3.258749         0.807933
