19
Iteration:  1364
 O         0.459393         0.719351         0.304843
 C        -0.816224         0.925696         0.670588
 C        -1.112590         1.012779         2.119552
 C        -2.511611         1.170724         1.311665
 O        -3.745698         1.609387         1.639714
 C        -2.166935         0.154076         0.204697
 C        -2.756827         0.724455        -1.035674
 C        -2.312013         2.271975        -1.013579
 C        -1.569151         2.276609         0.356490
 H         0.727810         1.620053         0.178379
 H        -0.733714         0.130383         2.675990
 H        -0.757829         2.011100         2.540460
 H        -4.285850         0.845310         1.945817
 H        -2.156310        -0.990546         0.439108
 H        -2.409549         0.313827        -1.930220
 H        -3.849067         0.713433        -1.167212
 H        -1.729857         2.610169        -1.848233
 H        -3.073652         3.009581        -0.858805
 H        -1.203746         3.207526         0.855552
