19
Iteration:  1836
 O         0.536517         0.806403         0.212158
 C        -0.737185         0.839560         0.653772
 C        -1.203450         1.037972         2.151606
 C        -2.503702         1.276542         1.345067
 O        -3.745970         1.685743         1.700566
 C        -2.082879         0.157953         0.214414
 C        -2.599047         0.776336        -1.106783
 C        -2.406549         2.274120        -1.034188
 C        -1.735180         2.163770         0.390655
 H         0.939955        -0.117547         0.494843
 H        -1.332181         0.023977         2.782501
 H        -0.749065         1.884181         2.885089
 H        -4.467159         0.911071         1.890892
 H        -2.336777        -0.938876         0.423545
 H        -2.263658         0.124672        -1.945458
 H        -3.731803         0.519550        -0.980930
 H        -1.690687         2.666775        -1.923658
 H        -3.383525         2.800611        -1.152313
 H        -1.406978         3.122517         0.852061
