19
Iteration:   613charge 0 multiplicity 1
 O         0.599287         0.733140         0.195067
 C        -0.806725         1.016706         0.570309
 C        -1.281840         0.950104         2.121876
 C        -2.599198         1.266200         1.367437
 O        -3.860684         1.461901         1.903711
 C        -2.308423         0.254815         0.230598
 C        -2.537925         0.730240        -1.213304
 C        -2.284247         2.269772        -1.004777
 C        -1.538799         2.337397         0.271613
 H         0.645709        -0.188366         0.221343
 H        -1.203672        -0.059697         2.529804
 H        -0.862731         1.676720         2.803901
 H        -3.710311         1.911865         2.846685
 H        -2.313729        -0.707249         0.646999
 H        -1.710260         0.244515        -1.782019
 H        -3.528258         0.531032        -1.637750
 H        -1.685127         2.701924        -1.864460
 H        -3.240673         2.789471        -0.848741
 H        -0.925819         3.250059         0.684263
