19
Iteration:  4399charge 0 multiplicity 1
 O         0.556113         0.704436         0.384007
 C        -0.821369         1.087750         0.623033
 C        -1.162248         1.124854         2.084031
 C        -2.572111         1.430326         1.339713
 O        -3.862436         1.502335         1.875144
 C        -2.112513         0.246465         0.388698
 C        -2.563984         0.534247        -1.070076
 C        -2.308214         2.080412        -1.202540
 C        -1.663668         2.316361         0.189906
 H         0.640077         0.382850        -0.511177
 H        -0.958168         0.159757         2.620215
 H        -0.874558         1.873324         2.780703
 H        -4.486052         1.674604         1.157688
 H        -2.217057        -0.827551         0.529457
 H        -2.017783        -0.200553        -1.717972
 H        -3.623067         0.388488        -0.939756
 H        -1.577607         2.479678        -2.079940
 H        -3.205681         2.726019        -1.257495
 H        -1.325578         3.364891         0.365234
