19
Iteration:   347charge 0 multiplicity 1
 O         0.403695         0.683660         0.214685
 C        -0.820697         1.032852         0.752629
 C        -1.190097         0.894796         2.190559
 C        -2.501347         1.233673         1.315282
 O        -3.769836         1.531971         1.873573
 C        -2.150392         0.198065         0.153148
 C        -2.556585         0.774462        -1.221118
 C        -2.167233         2.223107        -1.124389
 C        -1.788145         2.281953         0.423822
 H         0.545045         1.376539        -0.384005
 H        -1.145617        -0.012387         2.823192
 H        -0.709958         1.679215         2.754259
 H        -3.871852         2.441268         2.054255
 H        -2.077817        -0.899719         0.281697
 H        -2.293854         0.145055        -2.070423
 H        -3.682909         0.705737        -1.365484
 H        -1.192650         2.475637        -1.669850
 H        -3.038057         2.833390        -1.405162
 H        -1.581167         3.298989         1.006626
