19
Iteration:  4673
 O         0.508089         0.690925         0.445061
 C        -0.823451         1.007873         0.605349
 C        -1.208788         1.270968         2.148112
 C        -2.472906         1.260555         1.294875
 O        -3.797971         1.491482         1.788750
 C        -2.035415         0.187554         0.335413
 C        -2.600920         0.602340        -1.092190
 C        -2.309351         2.143421        -1.191561
 C        -1.771479         2.261262         0.180778
 H         0.855435         0.992285        -0.508262
 H        -1.313597         0.341463         2.774209
 H        -0.844502         2.145842         2.635176
 H        -3.774249         2.227190         2.389458
 H        -2.171540        -0.848721         0.675040
 H        -2.276647        -0.115276        -1.943165
 H        -3.707829         0.480144        -1.168436
 H        -1.435370         2.252654        -1.935690
 H        -3.234483         2.645067        -1.346526
 H        -1.786783         3.317663         0.635228
