19
Iteration:  3678
 O         0.398656         0.745638         0.016916
 C        -0.849786         0.947326         0.717476
 C        -1.375080         0.897055         2.186982
 C        -2.496836         1.345583         1.339322
 O        -3.756177         1.540831         1.733713
 C        -2.132300         0.249898         0.331272
 C        -2.537465         0.761891        -1.159993
 C        -2.219105         2.253916        -0.941158
 C        -1.578014         2.274626         0.419735
 H         1.224359         0.594553         0.466710
 H        -1.532389        -0.096398         2.455817
 H        -0.930279         1.652992         2.871777
 H        -4.384321         1.016190         1.134812
 H        -2.316030        -0.772280         0.679817
 H        -1.770115         0.360190        -1.802689
 H        -3.538674         0.385693        -1.414755
 H        -1.622942         2.604827        -1.823478
 H        -3.046464         2.929703        -0.920073
 H        -1.100880         3.154852         0.925923
