19
Iteration:   614charge 0 multiplicity 1
 O         0.592010         0.735458         0.192864
 C        -0.805017         1.020528         0.560947
 C        -1.293862         0.951460         2.114612
 C        -2.596967         1.275642         1.371643
 O        -3.861376         1.464070         1.909245
 C        -2.305909         0.251972         0.228002
 C        -2.534231         0.735884        -1.201557
 C        -2.281591         2.261108        -1.009214
 C        -1.536101         2.328150         0.281157
 H         0.673226        -0.165608         0.242081
 H        -1.167957        -0.069236         2.520594
 H        -0.850532         1.641823         2.797108
 H        -3.715516         1.891582         2.802714
 H        -2.317632        -0.742442         0.678657
 H        -1.691569         0.255763        -1.773096
 H        -3.512028         0.506452        -1.680042
 H        -1.679048         2.725258        -1.890074
 H        -3.262259         2.838832        -0.854541
 H        -0.926499         3.202458         0.681843
