19
Iteration:  2802charge 0 multiplicity 1
 O         0.535738         0.702519         0.265096
 C        -0.804248         0.934995         0.694605
 C        -1.283208         1.085932         2.172925
 C        -2.518384         1.360187         1.286508
 O        -3.792869         1.513756         1.777632
 C        -2.183947         0.252756         0.238000
 C        -2.631465         0.725203        -1.188450
 C        -2.271601         2.217632        -1.000364
 C        -1.599021         2.211883         0.332116
 H         0.590843         0.724028        -0.670006
 H        -1.014466         0.212183         2.809402
 H        -1.011686         2.014322         2.732257
 H        -4.175942         0.873055         2.483907
 H        -2.187098        -0.804621         0.510494
 H        -1.914032         0.223769        -1.939632
 H        -3.642927         0.447041        -1.572374
 H        -1.620091         2.590685        -1.743092
 H        -3.241733         2.773087        -0.959098
 H        -1.163362         3.196340         0.554906
