19
Iteration:  1091
 O         0.523419         0.721898         0.113508
 C        -0.773133         0.993383         0.597248
 C        -1.241464         0.796658         2.147462
 C        -2.551835         1.305351         1.339117
 O        -3.873920         1.637836         1.807232
 C        -2.120228         0.341706         0.254756
 C        -2.532852         0.759541        -1.119714
 C        -2.245232         2.226054        -1.042907
 C        -1.708993         2.291967         0.445272
 H         0.851456        -0.289922         0.068842
 H        -1.439036        -0.184929         2.446419
 H        -0.800984         1.503610         2.941112
 H        -4.111212         0.948361         2.475121
 H        -2.328467        -0.713740         0.468201
 H        -1.880253         0.276910        -1.908376
 H        -3.662479         0.659559        -1.313840
 H        -1.492059         2.571358        -1.792457
 H        -3.167937         2.881430        -1.105836
 H        -1.275158         3.201029         0.840398
