19
Iteration:   654
 O         0.351743         0.742460        -0.033552
 C        -0.833453         1.016069         0.678264
 C        -1.285939         0.909175         2.231833
 C        -2.487469         1.230429         1.362739
 O        -3.767831         1.574080         1.785232
 C        -2.104617         0.170500         0.243218
 C        -2.529272         0.715882        -1.239576
 C        -2.161618         2.254827        -0.997164
 C        -1.762569         2.266529         0.540778
 H         1.006683         0.413270         0.721025
 H        -1.098024        -0.094638         2.575343
 H        -0.939446         1.825177         2.813894
 H        -3.723159         2.407171         2.300648
 H        -2.221272        -0.860993         0.306580
 H        -1.937514         0.294341        -2.038990
 H        -3.572126         0.679990        -1.464441
 H        -1.331003         2.585245        -1.533395
 H        -3.029104         2.785592        -1.224916
 H        -1.524926         3.306429         0.977778
