19
Iteration:  1141charge 0 multiplicity 1
 O         0.439785         0.689623         0.159399
 C        -0.855617         0.916338         0.680088
 C        -1.252297         0.913469         2.113656
 C        -2.556432         1.323304         1.331746
 O        -3.755531         1.584670         1.887483
 C        -2.244721         0.244341         0.230082
 C        -2.403936         0.718716        -1.212658
 C        -2.202328         2.305591        -1.046236
 C        -1.714775         2.304605         0.433134
 H         0.358830         0.690418        -0.774657
 H        -1.139756        -0.057127         2.767867
 H        -0.885068         1.698571         2.741136
 H        -3.972641         1.045906         2.629407
 H        -2.531251        -0.843496         0.369898
 H        -1.636787         0.247769        -1.808430
 H        -3.361590         0.545413        -1.660268
 H        -1.435411         2.729511        -1.694550
 H        -3.170224         2.768144        -1.266451
 H        -1.412201         3.245323         0.902732
