19
Iteration:  2843
 O         0.515265         0.642544         0.185701
 C        -0.765289         1.087886         0.694342
 C        -1.267175         0.960224         2.115501
 C        -2.471711         1.247497         1.366466
 O        -3.806975         1.685977         1.764745
 C        -2.095971         0.226097         0.255241
 C        -2.495606         0.666153        -1.089786
 C        -2.331873         2.206212        -1.040633
 C        -1.809070         2.335238         0.402628
 H         0.170271         0.233328        -0.689124
 H        -1.248486         0.043153         2.703678
 H        -0.956544         1.717977         2.829338
 H        -4.024438         0.790465         2.001988
 H        -2.098761        -0.883191         0.410542
 H        -1.755014         0.324941        -1.908466
 H        -3.367601         0.337605        -1.613301
 H        -1.481583         2.509392        -1.732904
 H        -3.231357         2.858799        -1.177074
 H        -1.495615         3.242132         0.840014
