19
Iteration:   345charge 0 multiplicity 1
 O         0.387037         0.681887         0.228239
 C        -0.823008         1.014318         0.759489
 C        -1.205955         0.891399         2.188031
 C        -2.508089         1.241528         1.318108
 O        -3.753995         1.522919         1.872499
 C        -2.142941         0.221019         0.137305
 C        -2.533683         0.770037        -1.233823
 C        -2.172293         2.225770        -1.122900
 C        -1.788797         2.274319         0.422069
 H         0.575729         1.398455        -0.482854
 H        -1.072277        -0.043330         2.846112
 H        -0.692134         1.744268         2.675316
 H        -3.863573         2.559909         2.124977
 H        -2.058571        -0.927892         0.328972
 H        -2.337108         0.096187        -2.095222
 H        -3.688597         0.665703        -1.267770
 H        -1.277775         2.525691        -1.658966
 H        -3.008982         2.852627        -1.378737
 H        -1.609355         3.350135         0.993198
