19
Iteration:    69
 O         0.530162         0.834869         0.149412
 C        -0.816229         0.931425         0.606951
 C        -1.318112         0.859296         2.106208
 C        -2.525257         1.326898         1.262332
 O        -3.878362         1.425275         1.847484
 C        -2.180405         0.284199         0.243449
 C        -2.592106         0.742119        -1.147075
 C        -2.176219         2.313588        -0.942191
 C        -1.586204         2.244677         0.438276
 H         0.902251        -0.125250         0.093910
 H        -1.234812        -0.140789         2.423900
 H        -0.999434         1.622812         2.847659
 H        -4.188469         2.327609         1.899928
 H        -2.511545        -0.726379         0.485529
 H        -2.027580         0.261508        -1.944531
 H        -3.652177         0.650382        -1.295837
 H        -1.354387         2.583137        -1.696252
 H        -3.045521         2.980646        -1.076325
 H        -0.983179         3.149273         0.807670
