19
Iteration:   350
 O         0.429064         0.682543         0.200843
 C        -0.820327         1.049100         0.729563
 C        -1.173379         0.903311         2.189607
 C        -2.502047         1.225084         1.313494
 O        -3.792125         1.528200         1.872161
 C        -2.157375         0.173057         0.183218
 C        -2.598392         0.772787        -1.199175
 C        -2.152057         2.222537        -1.119577
 C        -1.779355         2.295205         0.432353
 H         0.576044         1.460488        -0.372256
 H        -1.258682         0.000195         2.737148
 H        -0.754637         1.642386         2.896359
 H        -3.881146         2.475446         1.977068
 H        -2.126313        -0.863766         0.236923
 H        -2.162842         0.221615        -2.048841
 H        -3.643843         0.769427        -1.465397
 H        -1.163647         2.405886        -1.673279
 H        -3.035805         2.836334        -1.441623
 H        -1.546306         3.147426         0.949862
