19
Iteration:  2057charge 0 multiplicity 1
 O         0.406850         0.877519         0.133048
 C        -0.840673         0.983541         0.663821
 C        -1.257561         0.895931         2.121653
 C        -2.515344         1.297278         1.326922
 O        -3.802366         1.614676         1.807870
 C        -2.104321         0.239633         0.241415
 C        -2.617003         0.670393        -1.093629
 C        -2.127688         2.139782        -1.045864
 C        -1.631407         2.298632         0.388699
 H         0.933877         0.031909         0.364941
 H        -1.354725        -0.127018         2.537027
 H        -0.887711         1.602900         2.897370
 H        -4.230766         0.774068         2.086134
 H        -2.323755        -0.765386         0.658968
 H        -2.379628         0.086104        -1.948020
 H        -3.681100         0.779971        -1.224817
 H        -1.384621         2.445612        -1.819202
 H        -2.863626         2.885549        -1.255543
 H        -1.369711         3.295111         0.719494
