19
Iteration:   168charge 0 multiplicity 1
 O         0.414136         0.677531         0.120109
 C        -0.873780         1.014779         0.607147
 C        -1.310509         0.931787         2.112874
 C        -2.496177         1.262283         1.290280
 O        -3.812276         1.525818         1.808469
 C        -2.093028         0.175393         0.177899
 C        -2.556420         0.727386        -1.112501
 C        -2.121772         2.284201        -0.970058
 C        -1.724918         2.279699         0.442860
 H         1.051742         1.277370         0.617153
 H        -1.299313        -0.059643         2.517462
 H        -0.872776         1.668597         2.806534
 H        -3.588011         1.981834         2.557746
 H        -2.113076        -0.946195         0.329130
 H        -2.020695         0.186055        -1.898062
 H        -3.637282         0.823816        -1.196683
 H        -1.403992         2.744419        -1.685134
 H        -3.087214         2.771750        -1.082084
 H        -1.545144         3.354313         0.895817
