19
Iteration:  3431charge 0 multiplicity 1
 O         0.416628         0.695792         0.173279
 C        -0.883626         1.008095         0.596236
 C        -1.249907         0.972828         2.142621
 C        -2.509809         1.236283         1.339662
 O        -3.806906         1.457220         1.835178
 C        -2.211697         0.289172         0.258709
 C        -2.609048         0.804924        -1.101146
 C        -2.165832         2.251439        -1.033249
 C        -1.594648         2.302909         0.352329
 H         1.010430         0.981684         0.862939
 H        -1.055914         0.032916         2.674879
 H        -0.688090         1.765311         2.582200
 H        -4.301449         1.232334         1.109546
 H        -2.309310        -0.750158         0.515185
 H        -1.855174         0.164186        -1.549836
 H        -3.536274         0.316053        -1.438220
 H        -1.400354         2.416386        -1.750320
 H        -2.960983         3.021228        -1.158935
 H        -0.971908         3.155885         0.667099
