19
Iteration:    64
 O         0.501773         0.846582         0.137811
 C        -0.862551         0.950673         0.577488
 C        -1.357245         0.880196         2.119317
 C        -2.518065         1.340763         1.283144
 O        -3.832260         1.393162         1.843280
 C        -2.216657         0.272002         0.218838
 C        -2.588003         0.739430        -1.110720
 C        -2.148816         2.299533        -0.931811
 C        -1.532080         2.260537         0.432634
 H         0.939463         0.031552         0.245999
 H        -1.427477        -0.231090         2.398212
 H        -1.014171         1.623184         2.831406
 H        -4.137852         2.328830         1.863405
 H        -2.364512        -0.788290         0.513902
 H        -2.051799         0.238240        -1.946509
 H        -3.662517         0.606387        -1.429950
 H        -1.418630         2.477619        -1.684550
 H        -2.929738         3.057693        -1.032151
 H        -0.964591         3.074861         0.787260
