19
Iteration:  2571
 O         0.526185         0.745950         0.194797
 C        -0.860186         0.956345         0.548953
 C        -1.293005         1.060777         2.109035
 C        -2.515058         1.339278         1.323467
 O        -3.841086         1.533905         1.796349
 C        -2.187466         0.168479         0.252533
 C        -2.654157         0.738974        -1.047238
 C        -2.136886         2.139583        -0.994751
 C        -1.623272         2.307801         0.394935
 H         0.666434         1.156390        -0.638821
 H        -1.386228         0.103666         2.730325
 H        -0.776259         1.788699         2.798753
 H        -4.127409         0.783516         2.173946
 H        -2.261490        -0.887793         0.548380
 H        -2.101047         0.256866        -1.857769
 H        -3.727931         0.556201        -1.220722
 H        -1.197972         2.279487        -1.553094
 H        -2.765192         2.996170        -1.354788
 H        -1.046701         3.129200         0.784487
