19
Iteration:  2575
 O         0.515918         0.744421         0.201948
 C        -0.846156         1.001815         0.560064
 C        -1.292194         1.023312         2.121072
 C        -2.530161         1.344767         1.347149
 O        -3.805204         1.561956         1.769975
 C        -2.171954         0.182678         0.256891
 C        -2.663781         0.735179        -1.053154
 C        -2.121773         2.139096        -1.020290
 C        -1.644942         2.272032         0.408128
 H         0.513041         1.177462        -0.720834
 H        -1.325973         0.043661         2.556674
 H        -0.902140         1.733741         2.827734
 H        -4.108188         0.633298         2.224964
 H        -2.285799        -0.891941         0.560414
 H        -2.085873         0.287674        -1.820515
 H        -3.770379         0.569251        -1.137365
 H        -1.201199         2.231215        -1.625810
 H        -2.849418         2.887179        -1.388476
 H        -1.103351         3.217126         0.846751
