19
Iteration:   735charge 0 multiplicity 1
 O         0.591599         0.605414         0.293280
 C        -0.771333         0.982376         0.548285
 C        -1.249623         0.974999         2.089041
 C        -2.532150         1.265574         1.324420
 O        -3.898104         1.506602         1.817463
 C        -2.088001         0.268846         0.187828
 C        -2.648940         0.817604        -1.173030
 C        -2.221509         2.282072        -0.983844
 C        -1.732078         2.208159         0.411924
 H         0.849096         1.045173        -0.609616
 H        -1.205331         0.034753         2.660873
 H        -0.668876         1.635347         2.672046
 H        -3.703467         2.019199         2.677308
 H        -2.136550        -0.871718         0.286294
 H        -2.525595         0.161491        -2.085154
 H        -3.793874         0.767686        -1.087389
 H        -1.595194         2.874467        -1.693848
 H        -3.096319         2.925588        -1.004007
 H        -1.295497         3.181306         0.868219
