19
Iteration:   113charge 0 multiplicity 1
 O         0.444582         0.628457         0.218491
 C        -0.808793         1.021042         0.694784
 C        -1.270114         0.921356         2.055983
 C        -2.499183         1.256759         1.232395
 O        -3.798363         1.484722         1.682559
 C        -2.074689         0.237334         0.220577
 C        -2.523547         0.760374        -1.106536
 C        -2.325034         2.315792        -0.880024
 C        -1.638832         2.265036         0.503944
 H         0.536570         0.823324        -0.820732
 H        -1.214870        -0.022023         2.526577
 H        -1.049785         1.835405         2.643983
 H        -3.722834         2.338077         2.180502
 H        -2.242064        -0.797524         0.558438
 H        -2.054209         0.424916        -2.036337
 H        -3.566479         0.516706        -1.279521
 H        -1.710642         2.732080        -1.726233
 H        -3.270380         2.878791        -0.774953
 H        -1.359098         3.286431         0.970114
