19
Iteration:  4830charge 0 multiplicity 1
 O         0.492460         0.766972         0.255011
 C        -0.793708         1.030327         0.646873
 C        -1.288620         1.234427         2.146245
 C        -2.496619         1.346941         1.252887
 O        -3.739891         1.578293         1.829553
 C        -2.097021         0.174274         0.290313
 C        -2.597637         0.513124        -1.099743
 C        -2.280601         2.025595        -1.070460
 C        -1.734401         2.256143         0.291377
 H         1.035741         0.770443         0.979821
 H        -1.140713         0.356159         2.726715
 H        -0.935593         2.165125         2.617375
 H        -4.351146         1.702548         1.078689
 H        -2.174968        -0.903863         0.520756
 H        -2.271496        -0.096930        -1.932353
 H        -3.750950         0.375551        -1.131783
 H        -1.536963         2.376999        -1.737873
 H        -3.118248         2.643036        -1.309356
 H        -1.329072         3.288978         0.658321
