19
Iteration:   924
 O         0.557658         0.840511         0.055875
 C        -0.754137         1.016761         0.589893
 C        -1.339981         0.800582         2.127667
 C        -2.551587         1.356978         1.290660
 O        -3.870901         1.604403         1.759096
 C        -2.202593         0.250411         0.258499
 C        -2.574552         0.713723        -1.092291
 C        -2.208906         2.216030        -0.904259
 C        -1.562714         2.271500         0.453363
 H         0.801680        -0.085083         0.010894
 H        -1.372931        -0.304977         2.413601
 H        -0.946499         1.419332         2.897252
 H        -3.967223         1.102417         2.697888
 H        -2.447440        -0.827414         0.622391
 H        -1.984857         0.185703        -1.877046
 H        -3.723437         0.555873        -1.373214
 H        -1.704198         2.563776        -1.783694
 H        -3.137741         2.807789        -0.905082
 H        -1.167831         3.140830         0.876543
