19
Iteration:  3173
 O         0.457794         0.649994         0.243665
 C        -0.792028         0.990015         0.708294
 C        -1.274177         0.938490         2.081798
 C        -2.542309         1.294293         1.293472
 O        -3.842528         1.489264         1.848205
 C        -2.124368         0.228517         0.234914
 C        -2.498011         0.775942        -1.193984
 C        -2.218126         2.238250        -1.012930
 C        -1.678094         2.286935         0.406847
 H         0.604427         0.885124        -0.693634
 H        -1.134199        -0.058204         2.596724
 H        -0.913968         1.848856         2.575807
 H        -3.980213         2.396361         2.125440
 H        -2.291882        -0.806406         0.555841
 H        -1.772556         0.453419        -1.983663
 H        -3.519560         0.523127        -1.413537
 H        -1.709239         2.595224        -1.935118
 H        -3.122663         2.832460        -1.097120
 H        -1.478456         3.233179         0.897677
