19
Iteration:  3491charge 0 multiplicity 1
 O         0.431881         0.697889         0.197063
 C        -0.872304         1.007563         0.696681
 C        -1.218960         0.970918         2.106574
 C        -2.537159         1.270061         1.312542
 O        -3.745684         1.532388         1.885401
 C        -2.144896         0.199312         0.193185
 C        -2.570243         0.737240        -1.234334
 C        -2.186653         2.276625        -1.010201
 C        -1.707417         2.263841         0.377157
 H         0.984086         0.645687         1.039091
 H        -1.143310        -0.050805         2.488636
 H        -0.729725         1.722417         2.751738
 H        -4.489668         1.863825         1.322970
 H        -2.290112        -0.896421         0.416997
 H        -1.915220         0.137135        -1.847963
 H        -3.613937         0.639150        -1.446984
 H        -1.548704         2.798066        -1.778404
 H        -3.134163         2.784921        -1.080572
 H        -1.246526         3.134700         0.827481
