19
Iteration:  4481
 O         0.475181         0.881389         0.180704
 C        -0.824793         1.047912         0.696604
 C        -1.202687         0.985977         2.151287
 C        -2.506403         1.405129         1.304661
 O        -3.827539         1.614696         1.652115
 C        -2.171308         0.184410         0.480562
 C        -2.514802         0.464334        -1.063988
 C        -2.199636         1.998715        -1.121612
 C        -1.693770         2.279822         0.345208
 H         0.585807         0.976096        -0.710207
 H        -1.403686         0.026776         2.624611
 H        -0.838187         1.902281         2.731067
 H        -3.944307         2.398271         2.204803
 H        -2.418459        -0.737989         1.063344
 H        -2.057810        -0.232447        -1.748000
 H        -3.612881         0.364952        -1.311227
 H        -1.606922         2.360006        -1.939770
 H        -3.274473         2.492951        -1.159101
 H        -1.424730         3.289501         0.716178
