19
Iteration:   804charge 0 multiplicity 1
 O         0.448146         0.753069        -0.010769
 C        -0.828990         0.962539         0.681926
 C        -1.224339         0.918037         2.197147
 C        -2.538489         1.194680         1.368878
 O        -3.811649         1.715291         1.849875
 C        -2.063259         0.210548         0.189240
 C        -2.471612         0.729963        -1.187872
 C        -2.235239         2.303737        -0.972790
 C        -1.769764         2.220447         0.518458
 H         0.491872        -0.277181        -0.008078
 H        -1.172670        -0.009916         2.701370
 H        -0.822425         1.671753         2.803462
 H        -4.482624         1.107600         1.829912
 H        -2.100118        -0.921829         0.395017
 H        -1.846948         0.243701        -1.948291
 H        -3.497054         0.535075        -1.620367
 H        -1.417829         2.858486        -1.483060
 H        -3.170257         2.877061        -1.317109
 H        -1.582692         3.126502         0.992086
