19
Iteration:  2374
 O         0.428021         0.852985         0.121661
 C        -0.809598         1.006550         0.636647
 C        -1.276311         0.890714         2.123688
 C        -2.516178         1.295597         1.283235
 O        -3.746419         1.658708         1.792279
 C        -2.145492         0.206797         0.257704
 C        -2.608587         0.656193        -1.118491
 C        -2.133437         2.199414        -1.068069
 C        -1.697042         2.244970         0.478344
 H         0.925170         0.207085         0.685900
 H        -1.519537        -0.062017         2.472751
 H        -0.909202         1.636195         2.825917
 H        -4.185021         0.904434         2.037474
 H        -2.207368        -0.871663         0.456104
 H        -2.390339         0.048943        -1.955663
 H        -3.761895         0.658732        -1.056007
 H        -1.245480         2.534183        -1.672535
 H        -2.989119         2.819015        -1.291161
 H        -1.379085         3.121752         1.060495
