19
Iteration:  2269
 O         0.444499         0.724088         0.047339
 C        -0.872616         1.035597         0.633419
 C        -1.321778         0.974320         2.122308
 C        -2.526285         1.371302         1.312505
 O        -3.763712         1.552802         1.813804
 C        -2.176612         0.246478         0.337115
 C        -2.505072         0.692961        -1.087543
 C        -2.188429         2.247679        -1.029727
 C        -1.684716         2.259724         0.427000
 H         0.660373        -0.134301         0.126859
 H        -1.322772        -0.059101         2.652764
 H        -0.859255         1.698454         2.837831
 H        -4.153728         0.712276         1.976911
 H        -2.129371        -0.799692         0.714147
 H        -1.692594         0.346334        -1.756351
 H        -3.465063         0.450079        -1.505563
 H        -1.275528         2.431277        -1.553097
 H        -3.011654         2.921430        -1.438495
 H        -1.340456         3.250635         0.892349
