19
Iteration:   784charge 0 multiplicity 1
 O         0.496296         0.760667         0.087816
 C        -0.791033         0.933313         0.645857
 C        -1.287213         0.845423         2.123803
 C        -2.563659         1.345239         1.357539
 O        -3.861155         1.664590         1.874109
 C        -2.100189         0.231252         0.188227
 C        -2.470286         0.723027        -1.194266
 C        -2.257824         2.221389        -0.937917
 C        -1.655065         2.301130         0.459631
 H         0.392567        -0.017091        -0.431322
 H        -1.319280        -0.147199         2.565225
 H        -0.927803         1.617306         2.876721
 H        -4.163293         0.899606         2.363745
 H        -2.151518        -0.818417         0.399904
 H        -1.880398         0.406248        -2.036717
 H        -3.475662         0.456469        -1.484017
 H        -1.669548         2.634761        -1.775500
 H        -3.200841         2.892955        -1.017389
 H        -1.259994         3.246049         0.747325
