19
Iteration:   624charge 0 multiplicity 1
 O         0.482782         0.775577         0.164934
 C        -0.827466         0.971140         0.586591
 C        -1.305224         0.923175         2.051557
 C        -2.530497         1.353850         1.335127
 O        -3.846588         1.479884         1.924599
 C        -2.223289         0.251788         0.264882
 C        -2.508487         0.754214        -1.147005
 C        -2.273357         2.256496        -1.049658
 C        -1.561450         2.227119         0.361925
 H         0.790106        -0.065468         0.451596
 H        -1.239395        -0.090628         2.436425
 H        -0.842361         1.645363         2.709227
 H        -3.765003         1.910044         2.749464
 H        -2.428316        -0.784352         0.408268
 H        -1.643261         0.412698        -1.771116
 H        -3.342070         0.393012        -1.745582
 H        -1.699424         2.684657        -1.925930
 H        -3.157882         2.890584        -1.012320
 H        -1.099643         3.237398         0.735739
