19
Iteration:  2978
 O         0.467130         0.746714         0.276604
 C        -0.823661         0.922757         0.667116
 C        -1.289311         0.966729         2.088546
 C        -2.493034         1.339206         1.320728
 O        -3.798845         1.507090         1.818070
 C        -2.066353         0.263229         0.257591
 C        -2.563238         0.668975        -1.150358
 C        -2.285480         2.218479        -1.041925
 C        -1.670895         2.262595         0.377107
 H         0.602873         0.787271        -0.679839
 H        -1.246362        -0.049146         2.506527
 H        -0.824665         1.643688         2.811656
 H        -3.958555         2.474318         2.039641
 H        -2.272964        -0.783233         0.432056
 H        -2.016526         0.372692        -2.076250
 H        -3.634055         0.440201        -1.252603
 H        -1.592548         2.477286        -1.857684
 H        -3.165494         2.898546        -1.311785
 H        -1.278758         3.139685         0.967504
