19
Iteration:  2700charge 0 multiplicity 1
 O         0.472181         0.626666         0.240700
 C        -0.818610         0.980344         0.654699
 C        -1.228141         1.036866         2.208120
 C        -2.496667         1.317880         1.327735
 O        -3.786553         1.582536         1.792546
 C        -2.140723         0.250933         0.240919
 C        -2.526905         0.692677        -1.142180
 C        -2.274302         2.241742        -1.066017
 C        -1.766958         2.291145         0.367927
 H         0.586933         0.884545        -0.747138
 H        -1.135726         0.083787         2.739371
 H        -0.745935         1.896452         2.707487
 H        -4.230030         0.814966         2.284959
 H        -2.067941        -0.817073         0.501152
 H        -1.989547         0.195121        -2.072348
 H        -3.495947         0.451250        -1.542312
 H        -1.507270         2.502865        -1.816529
 H        -3.119762         2.939107        -1.105500
 H        -1.238159         3.137096         0.742445
