19
Iteration:  1879charge 0 multiplicity 1
 O         0.518271         0.788286         0.151645
 C        -0.817492         0.983683         0.665219
 C        -1.251467         0.906782         2.168254
 C        -2.468264         1.382462         1.316711
 O        -3.791790         1.544139         1.643145
 C        -2.111559         0.270264         0.332543
 C        -2.663352         0.732153        -1.017244
 C        -2.249905         2.199268        -1.059023
 C        -1.701413         2.301706         0.350599
 H         0.852229        -0.186127         0.255070
 H        -1.259660        -0.169590         2.608307
 H        -0.718895         1.613991         2.921853
 H        -4.107797         0.672279         2.033310
 H        -2.341664        -0.729280         0.770753
 H        -2.365604         0.101022        -1.886757
 H        -3.807841         0.613773        -0.997981
 H        -1.395335         2.559414        -1.780304
 H        -3.107850         2.895614        -1.192117
 H        -1.206618         3.181331         0.768206
