19
Iteration:  3718
 O         0.435717         0.636678         0.222359
 C        -0.792765         0.974197         0.620134
 C        -1.193690         1.025949         2.079450
 C        -2.535124         1.253267         1.315818
 O        -3.784579         1.562180         1.866635
 C        -2.104997         0.213828         0.187125
 C        -2.558163         0.790018        -1.185920
 C        -2.256428         2.319604        -1.045444
 C        -1.755143         2.238130         0.479970
 H         0.812035         0.196263         1.066698
 H        -1.178545         0.057950         2.669731
 H        -0.824285         1.770043         2.796871
 H        -4.485204         1.144919         1.340170
 H        -2.149980        -0.886398         0.228871
 H        -1.841242         0.466980        -1.980713
 H        -3.566781         0.813570        -1.554861
 H        -1.354762         2.591923        -1.618054
 H        -3.130519         2.907434        -1.327088
 H        -1.343894         3.149048         0.854139
