19
Iteration:  4452
 O         0.472709         0.831377         0.200184
 C        -0.849823         1.040967         0.675777
 C        -1.241480         1.070613         2.169018
 C        -2.566223         1.329820         1.341567
 O        -3.847220         1.651987         1.815779
 C        -2.049145         0.117589         0.397069
 C        -2.546947         0.526263        -1.082222
 C        -2.182157         2.009465        -1.170831
 C        -1.731900         2.236198         0.330466
 H         0.544712         1.078835        -0.769839
 H        -1.214176         0.201148         2.834754
 H        -0.939136         2.006433         2.622190
 H        -3.971354         2.590009         1.669552
 H        -2.032116        -0.929610         0.713982
 H        -1.869900         0.007610        -1.832600
 H        -3.603086         0.321707        -1.285627
 H        -1.481840         2.262276        -2.041650
 H        -2.922087         2.707418        -1.507361
 H        -1.508264         3.218129         0.732682
