19
Iteration:   286charge 0 multiplicity 1
 O         0.444715         0.758174         0.242547
 C        -0.834507         0.952040         0.648133
 C        -1.214202         0.910014         2.147459
 C        -2.447207         1.385421         1.346075
 O        -3.810141         1.528210         1.666582
 C        -2.099667         0.213167         0.229791
 C        -2.565956         0.734404        -1.185168
 C        -2.347270         2.245459        -0.964148
 C        -1.643425         2.270075         0.436280
 H         0.595190         0.108841        -0.382237
 H        -1.272876        -0.097539         2.556932
 H        -0.608512         1.622481         2.801685
 H        -3.975728         1.811697         2.504446
 H        -2.294194        -0.815221         0.536887
 H        -1.939033         0.239050        -1.965747
 H        -3.622448         0.525622        -1.311781
 H        -1.764450         2.770709        -1.710861
 H        -3.321786         2.746348        -0.895420
 H        -1.121603         3.154591         0.726866
