19
Iteration:  1632
 O         0.387302         0.736544         0.069223
 C        -0.824984         0.994697         0.671003
 C        -1.257784         0.930740         2.109480
 C        -2.589373         1.360643         1.370350
 O        -3.838616         1.682249         1.916546
 C        -2.087649         0.234516         0.231421
 C        -2.436902         0.584379        -1.214522
 C        -2.239495         2.186330        -1.077181
 C        -1.709697         2.302020         0.421253
 H         1.086025         0.475281         0.792756
 H        -1.199939        -0.123488         2.487379
 H        -0.676568         1.668998         2.781272
 H        -4.045256         0.954683         2.630259
 H        -2.159915        -0.800965         0.436522
 H        -1.741555         0.225681        -2.011745
 H        -3.448728         0.308216        -1.460635
 H        -1.541004         2.575682        -1.765590
 H        -3.105522         2.790568        -1.298126
 H        -1.205339         3.287383         0.799256
