19
Iteration:  1988charge 0 multiplicity 1
 O         0.474399         0.746882         0.178333
 C        -0.760174         0.938053         0.698454
 C        -1.233262         0.953379         2.181969
 C        -2.431205         1.279511         1.339758
 O        -3.754494         1.665603         1.671479
 C        -2.117229         0.219943         0.230572
 C        -2.588554         0.738139        -1.152599
 C        -2.403412         2.226427        -0.974695
 C        -1.708749         2.256108         0.382506
 H         0.914008        -0.176942         0.311748
 H        -1.078510         0.171090         2.895868
 H        -0.995712         1.822070         2.767766
 H        -4.262275         0.934225         2.245812
 H        -2.239627        -0.834641         0.528596
 H        -1.986215         0.303640        -2.000622
 H        -3.509963         0.197693        -1.543274
 H        -1.742134         2.739636        -1.761862
 H        -3.255292         2.901602        -1.104673
 H        -1.447574         3.186491         0.896438
