19
Iteration:  1157
 O         0.474912         0.641657         0.165097
 C        -0.788655         1.051836         0.638451
 C        -1.206135         0.845042         2.151924
 C        -2.547657         1.330312         1.333426
 O        -3.935808         1.648374         1.904934
 C        -2.149555         0.267257         0.227662
 C        -2.522692         0.754392        -1.239704
 C        -2.207392         2.206195        -1.011849
 C        -1.660993         2.263832         0.398597
 H         0.641602         1.095852        -0.617622
 H        -1.369872        -0.148610         2.272641
 H        -0.684197         1.515898         2.938850
 H        -4.024977         0.783668         2.512936
 H        -2.077825        -0.745429         0.634310
 H        -1.726533         0.271650        -1.890968
 H        -3.551586         0.357279        -1.561620
 H        -1.496675         2.617075        -1.768295
 H        -3.051973         2.925413        -1.102705
 H        -1.292053         3.237152         0.794738
