19
Iteration:  2483
 O         0.457276         0.834561         0.230060
 C        -0.842246         0.907869         0.679662
 C        -1.280219         0.956597         2.171447
 C        -2.490635         1.228578         1.308915
 O        -3.678049         1.718755         1.677731
 C        -2.176081         0.186010         0.252874
 C        -2.569361         0.661133        -1.195687
 C        -2.388666         2.261212        -0.980843
 C        -1.617852         2.191422         0.431615
 H         0.633643         0.329126        -0.487937
 H        -1.124260        -0.011844         2.749046
 H        -0.820669         1.831376         2.761844
 H        -4.139238         1.125831         2.233379
 H        -2.314685        -0.889880         0.398499
 H        -1.711341         0.447397        -1.715284
 H        -3.441918         0.174409        -1.600196
 H        -1.714926         2.690238        -1.751885
 H        -3.273483         2.860874        -0.723497
 H        -1.178653         3.058406         0.904087
