19
Iteration:  3230charge 0 multiplicity 1
 O         0.510266         0.655774         0.250570
 C        -0.808781         1.047485         0.611281
 C        -1.294922         0.877644         2.164624
 C        -2.490846         1.283269         1.341237
 O        -3.809864         1.574543         1.848599
 C        -2.042087         0.243104         0.174609
 C        -2.596451         0.685326        -1.179355
 C        -2.195861         2.319597        -0.991225
 C        -1.769754         2.333238         0.468116
 H         0.429683         0.125161        -0.542821
 H        -1.031808        -0.137093         2.521339
 H        -0.899985         1.639592         2.854774
 H        -4.573178         1.672636         1.149435
 H        -1.905576        -0.845103         0.277095
 H        -2.168819         0.303777        -2.120567
 H        -3.681576         0.492123        -1.269761
 H        -1.350203         2.439828        -1.691257
 H        -3.059977         2.971266        -1.273969
 H        -1.575204         3.352012         0.763743
