19
Iteration:   381charge 0 multiplicity 1
 O         0.472293         0.767316         0.102186
 C        -0.828858         0.899764         0.665619
 C        -1.265881         0.882376         2.134136
 C        -2.507051         1.409896         1.286266
 O        -3.861983         1.438941         1.766891
 C        -2.167183         0.245421         0.258471
 C        -2.620819         0.697752        -1.066450
 C        -2.146387         2.203049        -0.980302
 C        -1.538429         2.269760         0.443223
 H         0.557460         1.712578        -0.178899
 H        -1.550545         0.021120         2.708125
 H        -0.755826         1.672720         2.653871
 H        -4.272282         2.382074         1.848105
 H        -2.360822        -0.764023         0.477630
 H        -2.203569         0.157305        -1.887550
 H        -3.698740         0.839800        -1.106688
 H        -1.486247         2.624043        -1.822908
 H        -3.090955         2.770857        -1.107453
 H        -1.003761         3.144154         0.928723
