19
Iteration:  4775charge 0 multiplicity 1
 O         0.417938         0.840044         0.152478
 C        -0.846787         1.031130         0.692488
 C        -1.283432         1.156247         2.218199
 C        -2.479963         1.410336         1.258875
 O        -3.833269         1.645123         1.762320
 C        -2.084608         0.205287         0.392436
 C        -2.526526         0.455267        -1.099793
 C        -2.221093         2.032714        -1.122938
 C        -1.685561         2.263574         0.326218
 H         0.589630        -0.017488        -0.281397
 H        -1.136749         0.279480         2.759007
 H        -0.802691         2.047114         2.689284
 H        -4.160399         0.799606         2.185021
 H        -2.127717        -0.843528         0.734904
 H        -1.710780         0.139522        -1.717316
 H        -3.596059         0.126296        -1.347017
 H        -1.323753         2.142718        -1.762188
 H        -2.957260         2.790683        -1.338628
 H        -1.596639         3.306047         0.764945
