19
Iteration:  3156charge 0 multiplicity 1
 O         0.478299         0.660657         0.228604
 C        -0.867540         1.079476         0.575300
 C        -1.237619         0.895833         2.181026
 C        -2.499610         1.203514         1.295276
 O        -3.826188         1.582208         1.717983
 C        -2.143448         0.242604         0.246066
 C        -2.495077         0.649893        -1.110025
 C        -2.232270         2.284477        -1.015500
 C        -1.749125         2.298878         0.471432
 H         0.518067         1.019123        -0.653708
 H        -1.305673        -0.154008         2.427169
 H        -0.896519         1.545562         3.002361
 H        -3.537550         2.260684         2.399717
 H        -2.028443        -0.843475         0.365069
 H        -1.938495         0.073009        -1.849678
 H        -3.590930         0.557373        -1.346447
 H        -1.398922         2.739167        -1.528845
 H        -3.175113         2.926812        -1.204223
 H        -1.386874         3.299313         0.831670
