19
Iteration:  3262charge 0 multiplicity 1
 O         0.506199         0.854921         0.197821
 C        -0.823570         0.911820         0.603818
 C        -1.327121         0.883526         2.204814
 C        -2.559523         1.292521         1.263791
 O        -3.778541         1.574278         1.779414
 C        -2.202107         0.205938         0.249723
 C        -2.622759         0.689353        -1.099679
 C        -2.160453         2.284465        -0.954547
 C        -1.571189         2.246088         0.406295
 H         0.322935         0.438052        -0.662546
 H        -1.139138        -0.127923         2.677440
 H        -0.944863         1.681976         2.878929
 H        -4.400134         1.320974         1.128836
 H        -2.129415        -0.849121         0.557165
 H        -2.120869         0.285013        -2.002547
 H        -3.691628         0.522857        -1.294848
 H        -1.354334         2.586265        -1.671536
 H        -2.825201         3.141817        -0.854799
 H        -1.156100         3.145613         0.835400
