19
Iteration:  4658charge 0 multiplicity 1
 O         0.495526         0.711392         0.351969
 C        -0.809894         1.078488         0.735444
 C        -1.191620         1.202089         2.118830
 C        -2.540645         1.387989         1.232775
 O        -3.805467         1.455028         1.769779
 C        -2.115813         0.181318         0.320804
 C        -2.621765         0.514953        -1.093919
 C        -2.245644         2.074765        -1.175144
 C        -1.724930         2.276274         0.322700
 H         0.662942         1.123870        -0.565241
 H        -0.972916         0.378931         2.835198
 H        -0.809714         2.118613         2.652182
 H        -3.964142         2.378889         2.076370
 H        -2.135164        -0.877240         0.594471
 H        -2.098030        -0.003348        -1.849606
 H        -3.668067         0.414096        -1.074615
 H        -1.545987         2.406393        -1.970111
 H        -3.193797         2.711387        -1.342784
 H        -1.312603         3.256133         0.476566
