19
Iteration:  4927charge 0 multiplicity 1
 O         0.549581         0.759287         0.264882
 C        -0.802665         1.018779         0.680914
 C        -1.189661         1.199722         2.157207
 C        -2.602811         1.385090         1.230441
 O        -3.883365         1.653424         1.817242
 C        -2.112089         0.200430         0.297264
 C        -2.454440         0.495531        -1.104308
 C        -2.265647         2.079377        -1.119097
 C        -1.766109         2.268906         0.310780
 H         0.375958         0.149328        -0.489287
 H        -1.138304         0.281481         2.679237
 H        -0.774082         2.041813         2.789918
 H        -3.957752         0.993313         2.524924
 H        -2.109859        -0.817142         0.745202
 H        -2.036821        -0.185298        -1.806529
 H        -3.508082         0.204651        -1.334867
 H        -1.450703         2.401280        -1.793752
 H        -3.223574         2.485905        -1.385748
 H        -1.513703         3.253701         0.631063
