19
Iteration:  2653
 O         0.495425         0.690503         0.285368
 C        -0.784697         0.924232         0.680282
 C        -1.231619         1.009287         2.199928
 C        -2.456401         1.347965         1.336218
 O        -3.789493         1.619898         1.779367
 C        -2.124885         0.227090         0.250103
 C        -2.509666         0.755061        -1.220892
 C        -2.434739         2.221339        -1.083794
 C        -1.653055         2.214289         0.358146
 H         0.276415         0.350450        -0.572299
 H        -1.223438         0.039677         2.659475
 H        -0.875059         1.839417         2.768031
 H        -4.015784         0.928230         2.288496
 H        -2.389925        -0.834846         0.429776
 H        -1.862772         0.344194        -1.973899
 H        -3.451236         0.298482        -1.552112
 H        -1.758447         2.771107        -1.797820
 H        -3.333945         2.821916        -0.935689
 H        -1.313582         3.261592         0.726372
