19
Iteration:  3996charge 0 multiplicity 1
 O         0.529901         0.738214         0.289188
 C        -0.787358         1.072583         0.622302
 C        -1.207121         0.942909         2.099645
 C        -2.515861         1.256717         1.291075
 O        -3.888464         1.445915         1.912691
 C        -2.279076         0.305947         0.229090
 C        -2.570443         0.665132        -1.169419
 C        -2.111983         2.281180        -1.123344
 C        -1.660645         2.302082         0.377698
 H         0.316179        -0.157865        -0.220887
 H        -1.119555        -0.063626         2.490191
 H        -0.877193         1.640705         2.872414
 H        -4.073642         2.467745         1.886367
 H        -2.234217        -0.766042         0.607743
 H        -2.001443        -0.093911        -1.663657
 H        -3.650274         0.686644        -1.554535
 H        -1.313081         2.499594        -1.806262
 H        -3.089010         2.725608        -1.269081
 H        -1.627474         3.368966         0.820228
