19
Iteration:  2617
 O         0.503223         0.822918         0.220475
 C        -0.805480         0.959198         0.644504
 C        -1.259077         0.888266         2.095811
 C        -2.500060         1.322839         1.371284
 O        -3.814891         1.769403         1.729078
 C        -2.068511         0.181505         0.210040
 C        -2.581896         0.663988        -1.117855
 C        -2.270754         2.159445        -0.995505
 C        -1.740203         2.183172         0.444951
 H         0.623426         0.533064        -0.651210
 H        -1.039611        -0.119284         2.495325
 H        -0.849459         1.590160         2.838325
 H        -4.222787         1.099852         2.156679
 H        -2.107204        -0.910231         0.514666
 H        -2.078750         0.254880        -1.923231
 H        -3.700298         0.454783        -1.256716
 H        -1.474751         2.437577        -1.725550
 H        -3.105447         2.936079        -1.141870
 H        -1.345129         3.129908         0.974556
