19
Iteration:  2505
 O         0.555495         0.721613         0.227879
 C        -0.758209         0.969280         0.669103
 C        -1.241600         0.925008         2.150789
 C        -2.548658         1.329783         1.316795
 O        -3.829417         1.738475         1.763038
 C        -2.098760         0.191908         0.226175
 C        -2.497878         0.684451        -1.177608
 C        -2.354234         2.189645        -0.982711
 C        -1.714266         2.280836         0.408982
 H         0.575047         0.446240        -0.777985
 H        -1.302641        -0.163987         2.481819
 H        -0.741403         1.471139         2.991874
 H        -4.245924         0.921824         2.287732
 H        -2.291215        -0.870150         0.435140
 H        -1.953829         0.224142        -1.949878
 H        -3.564518         0.572684        -1.300110
 H        -1.841036         2.618992        -1.856565
 H        -3.395650         2.554567        -0.948752
 H        -1.285466         3.198186         0.758080
