19
Iteration:  2117
 O         0.412392         0.772894         0.068687
 C        -0.816196         0.979508         0.647593
 C        -1.288767         0.904949         2.147307
 C        -2.513485         1.363361         1.288701
 O        -3.830212         1.652665         1.814178
 C        -2.106809         0.189434         0.290088
 C        -2.411672         0.668348        -1.073851
 C        -2.280042         2.265847        -1.031307
 C        -1.698751         2.270489         0.356103
 H         0.673336        -0.067848         0.168916
 H        -1.353265        -0.204958         2.423842
 H        -1.052606         1.660481         2.925496
 H        -3.978777         0.999167         2.463132
 H        -2.207740        -0.834226         0.636455
 H        -1.574949         0.184597        -1.665746
 H        -3.420276         0.310912        -1.412969
 H        -1.458927         2.546041        -1.703424
 H        -3.231705         2.900113        -1.052392
 H        -1.323968         3.181104         0.896951
