19
Iteration:  1762charge 0 multiplicity 1
 O         0.349755         0.812853         0.034782
 C        -0.858833         0.957077         0.693129
 C        -1.246749         1.071963         2.142820
 C        -2.598420         1.258050         1.323037
 O        -3.772310         1.641355         1.882645
 C        -2.187864         0.162890         0.227385
 C        -2.408765         0.649733        -1.199292
 C        -2.109264         2.184524        -1.025253
 C        -1.704396         2.242021         0.477378
 H         0.570911        -0.125560         0.193534
 H        -1.061778         0.292215         2.785532
 H        -0.918598         2.007519         2.633794
 H        -3.968084         1.147296         2.667461
 H        -2.276869        -0.983632         0.280815
 H        -1.785966         0.071196        -1.923315
 H        -3.422941         0.631936        -1.576047
 H        -1.395393         2.579049        -1.732696
 H        -3.070966         2.667569        -1.214759
 H        -1.541068         3.311460         0.843742
