19
Iteration:  1007charge 0 multiplicity 1
 O         0.320883         0.766424         0.192910
 C        -0.839625         1.011750         0.701216
 C        -1.243828         0.821722         2.146011
 C        -2.450097         1.335700         1.358630
 O        -3.707955         1.545199         1.798403
 C        -2.151900         0.288305         0.219962
 C        -2.585348         0.787804        -1.138946
 C        -2.239982         2.254144        -1.061360
 C        -1.629415         2.282545         0.353792
 H         0.825168         0.030629         0.369319
 H        -1.287043        -0.161390         2.632539
 H        -0.738347         1.375255         2.938236
 H        -4.211330         0.742067         1.757880
 H        -2.212327        -0.756256         0.356673
 H        -2.050479         0.208412        -1.911865
 H        -3.584709         0.657346        -1.365584
 H        -1.494114         2.524362        -1.876239
 H        -3.180355         2.873537        -1.123902
 H        -1.191790         3.321282         0.721940
