19
Iteration:  4028
 O         0.481974         0.774315         0.326121
 C        -0.817078         0.889861         0.679669
 C        -1.344096         1.010250         2.145364
 C        -2.447498         1.383306         1.250550
 O        -3.809375         1.531267         1.808191
 C        -2.094554         0.182296         0.155168
 C        -2.606894         0.706148        -1.174305
 C        -2.221446         2.275023        -1.055845
 C        -1.689800         2.217610         0.351510
 H         0.686776         0.139614        -0.410439
 H        -1.590399         0.156826         2.768460
 H        -0.857591         1.871520         2.689296
 H        -3.458597         1.588835         2.693034
 H        -2.118911        -0.906699         0.444759
 H        -1.983132         0.205306        -1.900424
 H        -3.692060         0.569019        -1.164147
 H        -1.565742         2.622328        -1.882047
 H        -3.121859         2.898339        -1.181715
 H        -1.403739         3.165901         0.879593
