19
Iteration:  2008charge 0 multiplicity 1
 O         0.535505         0.734229         0.187698
 C        -0.878288         0.998343         0.616971
 C        -1.160970         1.079493         2.155280
 C        -2.553000         1.291841         1.296037
 O        -3.826454         1.624722         1.629886
 C        -2.069946         0.146088         0.210224
 C        -2.601175         0.736282        -1.076734
 C        -2.319909         2.222210        -0.906986
 C        -1.640625         2.196739         0.415860
 H         0.640806        -0.143712         0.465836
 H        -1.035262         0.161493         2.719810
 H        -0.702249         1.908618         2.650082
 H        -4.265143         0.812283         2.007009
 H        -2.077739        -0.904131         0.438462
 H        -2.342919         0.135607        -2.019099
 H        -3.730486         0.636749        -1.172966
 H        -1.825704         2.846729        -1.629662
 H        -3.169403         2.911745        -0.742443
 H        -1.145419         3.021031         0.974485
