19
Iteration:   625charge 0 multiplicity 1
 O         0.468729         0.782503         0.159731
 C        -0.831968         0.957052         0.598996
 C        -1.294240         0.919542         2.050390
 C        -2.524399         1.358932         1.325877
 O        -3.841444         1.483095         1.925449
 C        -2.212074         0.258416         0.267643
 C        -2.503831         0.753968        -1.147417
 C        -2.269947         2.257097        -1.048580
 C        -1.570052         2.226692         0.366650
 H         0.803440        -0.088493         0.491509
 H        -1.281786        -0.109270         2.444503
 H        -0.856713         1.656767         2.689764
 H        -3.771403         1.902619         2.715775
 H        -2.443147        -0.815659         0.375319
 H        -1.629816         0.417064        -1.776739
 H        -3.369162         0.384509        -1.731279
 H        -1.662991         2.674103        -1.947490
 H        -3.203303         2.904748        -1.013111
 H        -1.148106         3.218487         0.735786
