19
Iteration:   112charge 0 multiplicity 1
 O         0.436046         0.629893         0.224551
 C        -0.808620         1.025589         0.692353
 C        -1.272312         0.921090         2.054769
 C        -2.494129         1.249302         1.241199
 O        -3.791640         1.485744         1.679328
 C        -2.067572         0.234039         0.214633
 C        -2.527694         0.762375        -1.108580
 C        -2.325666         2.317230        -0.881466
 C        -1.645945         2.264056         0.505448
 H         0.517041         0.792363        -0.838597
 H        -1.170477        -0.025450         2.511139
 H        -1.078274         1.846524         2.640639
 H        -3.708750         2.394266         2.190744
 H        -2.234683        -0.766412         0.560359
 H        -2.067116         0.418724        -2.041041
 H        -3.555350         0.488230        -1.293699
 H        -1.702808         2.725605        -1.657679
 H        -3.247597         2.888357        -0.817129
 H        -1.356183         3.262805         0.975168
