19
Iteration:  3305
 O         0.461102         0.597097         0.267356
 C        -0.832945         1.044898         0.643083
 C        -1.288439         0.943654         2.125881
 C        -2.554472         1.283748         1.307891
 O        -3.761212         1.517554         1.905302
 C        -1.997437         0.191285         0.196597
 C        -2.585716         0.716672        -1.190738
 C        -2.200683         2.333987        -1.018281
 C        -1.752848         2.366758         0.415435
 H         0.737757         0.905749        -0.676699
 H        -1.305773        -0.070087         2.639193
 H        -0.896848         1.773128         2.762115
 H        -4.411250         1.595876         1.276526
 H        -2.175576        -0.852366         0.530147
 H        -2.078959         0.293147        -2.095738
 H        -3.629444         0.456465        -1.423905
 H        -1.356777         2.464442        -1.755353
 H        -3.073763         2.888630        -1.307034
 H        -1.452984         3.306802         0.856075
