19
Iteration:  4281
 O         0.524927         0.709324         0.352733
 C        -0.802169         0.959982         0.600144
 C        -1.245800         1.230622         2.063311
 C        -2.529501         1.278577         1.327975
 O        -3.808426         1.547360         1.954883
 C        -2.180131         0.157906         0.296668
 C        -2.556519         0.576463        -1.137880
 C        -2.240406         2.074234        -1.108791
 C        -1.702796         2.314192         0.267276
 H         0.808910         1.189185        -0.552229
 H        -1.148067         0.441020         2.894652
 H        -0.973747         2.173716         2.519749
 H        -4.336321         1.898795         1.156387
 H        -2.160867        -0.931693         0.447347
 H        -1.869701         0.243687        -1.889469
 H        -3.623706         0.513857        -1.444023
 H        -1.542361         2.309964        -1.906263
 H        -3.098406         2.796333        -1.262566
 H        -1.429409         3.316446         0.739127
