19
Iteration:  4744
 O         0.471170         0.858815         0.114442
 C        -0.809398         1.060106         0.717062
 C        -1.259446         1.115157         2.204147
 C        -2.535265         1.327555         1.287139
 O        -3.862269         1.720399         1.628398
 C        -2.055482         0.122159         0.409440
 C        -2.504639         0.484686        -1.112291
 C        -2.208888         2.005057        -1.057166
 C        -1.757694         2.235862         0.401266
 H         0.503221         0.172895        -0.662334
 H        -0.942710         0.277593         2.826709
 H        -0.832994         2.024040         2.688878
 H        -3.923479         1.635771         2.577637
 H        -2.015027        -0.869392         0.858114
 H        -2.003330         0.039092        -1.949100
 H        -3.607630         0.235597        -1.296154
 H        -1.420519         2.334868        -1.621928
 H        -3.156107         2.600076        -0.990264
 H        -1.774606         3.257612         0.790712
