19
Iteration:  1051
 O         0.557697         0.835561         0.098610
 C        -0.790988         0.849655         0.680296
 C        -1.246896         0.931165         2.173483
 C        -2.499659         1.204408         1.320825
 O        -3.800118         1.660460         1.688311
 C        -2.135389         0.186983         0.189466
 C        -2.744782         0.872036        -1.085526
 C        -2.233629         2.251523        -0.955622
 C        -1.604805         2.125024         0.431228
 H         0.958449         0.313196         0.726021
 H        -1.088063         0.140520         2.923120
 H        -0.866339         1.828932         2.709148
 H        -4.518545         0.986709         1.640734
 H        -2.300870        -0.854109         0.332990
 H        -2.444192         0.365676        -2.005778
 H        -3.783107         0.761985        -0.980166
 H        -1.495753         2.543776        -1.770619
 H        -3.104507         2.955834        -0.863914
 H        -1.396780         3.149562         0.948370
