19
Iteration:  4965
 O         0.496340         0.835641         0.304256
 C        -0.817206         1.078931         0.713853
 C        -1.210856         1.181126         2.167786
 C        -2.511890         1.387186         1.241023
 O        -3.777071         1.625831         1.805166
 C        -2.137795         0.184064         0.278141
 C        -2.581529         0.448029        -1.134528
 C        -2.270590         2.028027        -1.113677
 C        -1.675232         2.265719         0.314056
 H         0.662604         0.049400        -0.095383
 H        -1.150224         0.173739         2.681234
 H        -0.907462         2.034922         2.771335
 H        -4.381466         0.907840         1.575127
 H        -2.356312        -0.871588         0.542365
 H        -2.060616        -0.110075        -1.972597
 H        -3.675463         0.279822        -0.974555
 H        -1.671897         2.364055        -1.950974
 H        -3.107457         2.753221        -1.210628
 H        -1.391622         3.344447         0.600642
