19
Iteration:  1966
 O         0.474087         0.808637         0.120410
 C        -0.811614         1.016072         0.610628
 C        -1.323462         0.918241         2.116189
 C        -2.529221         1.335039         1.302599
 O        -3.820725         1.696898         1.849988
 C        -2.155499         0.178082         0.246766
 C        -2.453722         0.613487        -1.133821
 C        -2.243016         2.209790        -0.967371
 C        -1.645753         2.303943         0.384915
 H         0.694526        -0.082689         0.375579
 H        -1.458814        -0.103129         2.460819
 H        -0.737132         1.318153         2.900580
 H        -4.086910         1.029765         2.400211
 H        -2.157333        -0.877663         0.545226
 H        -1.842326         0.125969        -1.937508
 H        -3.459000         0.277106        -1.553328
 H        -1.874763         2.696571        -1.905812
 H        -3.277075         2.565743        -1.033082
 H        -1.305050         3.257815         0.809467
