19
Iteration:  1065charge 0 multiplicity 1
 O         0.390218         0.829971         0.175564
 C        -0.833002         0.954533         0.625247
 C        -1.221313         0.879026         2.194892
 C        -2.449508         1.265288         1.301212
 O        -3.705766         1.623007         1.647376
 C        -2.166838         0.216515         0.198939
 C        -2.727273         0.728164        -1.120077
 C        -2.228611         2.262272        -0.935638
 C        -1.584439         2.257265         0.461419
 H         1.023502         0.183378         0.639578
 H        -1.326396        -0.201446         2.586713
 H        -0.851393         1.693301         2.747878
 H        -4.158295         0.732646         1.860228
 H        -2.304412        -0.884014         0.488858
 H        -2.359775         0.253829        -2.015537
 H        -3.819328         0.787298        -1.120210
 H        -1.580982         2.595594        -1.705560
 H        -3.032227         2.946642        -0.949395
 H        -1.007814         3.072757         0.891123
