19
Iteration:  4976charge 0 multiplicity 1
 O         0.554779         0.893389         0.245582
 C        -0.756596         0.970644         0.704339
 C        -1.262201         1.157499         2.115692
 C        -2.505081         1.345932         1.312524
 O        -3.856857         1.648253         1.779544
 C        -2.082338         0.160119         0.392308
 C        -2.605518         0.555750        -1.071928
 C        -2.252892         2.054685        -1.094670
 C        -1.697310         2.221431         0.235345
 H         0.555467        -0.065279        -0.095575
 H        -1.181493         0.293214         2.843919
 H        -0.911762         2.092530         2.558478
 H        -4.424004         0.990139         1.303603
 H        -2.362343        -0.796914         0.879621
 H        -2.116222         0.018481        -1.950986
 H        -3.660712         0.323059        -1.389238
 H        -1.559767         2.305082        -1.882761
 H        -3.224660         2.561385        -1.137470
 H        -1.329891         3.206819         0.662214
