19
Iteration:  1768
 O         0.357771         0.798701         0.026819
 C        -0.866975         0.969298         0.645458
 C        -1.292080         1.112011         2.121961
 C        -2.538205         1.272980         1.348596
 O        -3.753390         1.650381         1.879273
 C        -2.182840         0.153893         0.252872
 C        -2.399094         0.637876        -1.233941
 C        -2.149305         2.185928        -0.972818
 C        -1.769480         2.194436         0.458039
 H         0.677203        -0.057519         0.216934
 H        -1.286872         0.092845         2.755263
 H        -0.991855         2.050615         2.670354
 H        -3.871693         1.168075         2.689230
 H        -2.276578        -0.909813         0.449973
 H        -1.602763         0.274495        -1.899787
 H        -3.437490         0.461539        -1.642522
 H        -1.180119         2.561563        -1.506611
 H        -2.938737         2.939000        -1.257928
 H        -1.392167         3.097670         0.889918
