19
Iteration:  4266
 O         0.509853         0.710833         0.355990
 C        -0.847019         0.997301         0.692198
 C        -1.176071         1.179774         2.145289
 C        -2.545517         1.354008         1.262786
 O        -3.745211         1.574004         1.856511
 C        -2.117067         0.188735         0.287658
 C        -2.575929         0.620073        -1.141809
 C        -2.282064         2.164466        -1.143681
 C        -1.766228         2.172900         0.305777
 H         0.675655         1.015732        -0.477615
 H        -0.990232         0.312159         2.752149
 H        -0.669026         2.121584         2.467814
 H        -4.502464         1.170885         1.413512
 H        -2.365384        -0.807328         0.675343
 H        -1.989542        -0.120388        -1.799833
 H        -3.597389         0.247790        -1.246786
 H        -1.565889         2.644832        -1.887357
 H        -3.107579         2.775223        -1.492208
 H        -1.399514         3.127730         0.621657
