19
Iteration:  1857charge 0 multiplicity 1
 O         0.540351         0.765199         0.216470
 C        -0.749594         1.045820         0.657149
 C        -1.227494         1.017690         2.123177
 C        -2.486748         1.254637         1.301754
 O        -3.804051         1.636042         1.653802
 C        -2.127121         0.150517         0.191294
 C        -2.777696         0.709462        -1.091980
 C        -2.288035         2.193601        -0.901917
 C        -1.592435         2.252536         0.400002
 H         0.745080        -0.117342         0.320313
 H        -0.993357         0.149127         2.898162
 H        -0.919499         2.020961         2.681092
 H        -4.304857         0.836284         1.785209
 H        -1.967662        -0.906416         0.481236
 H        -2.393093         0.248106        -2.049585
 H        -3.891256         0.429475        -1.096573
 H        -1.607016         2.487879        -1.859468
 H        -3.111322         2.946451        -0.856865
 H        -1.342666         3.177451         0.923098
