19
Iteration:   905charge 0 multiplicity 1
 O         0.594304         0.839956         0.152174
 C        -0.784318         0.880306         0.663155
 C        -1.220913         0.890846         2.140783
 C        -2.516675         1.240080         1.332672
 O        -3.849915         1.617272         1.754055
 C        -2.173328         0.203932         0.199710
 C        -2.707997         0.779001        -1.134239
 C        -2.257974         2.309542        -1.014720
 C        -1.642033         2.218380         0.409465
 H         1.041816        -0.049821         0.256120
 H        -1.349450        -0.006189         2.631356
 H        -0.816960         1.717419         2.754586
 H        -4.083759         1.007943         2.565757
 H        -2.255475        -0.859093         0.359789
 H        -2.239318         0.300666        -1.989922
 H        -3.789159         0.631969        -1.130870
 H        -1.468902         2.657392        -1.736196
 H        -3.101323         3.093800        -0.918494
 H        -1.206692         3.106729         0.848646
