19
Iteration:   537charge 0 multiplicity 1
 O         0.445547         0.907758         0.070052
 C        -0.791778         0.891736         0.652519
 C        -1.238939         0.888743         2.221975
 C        -2.476189         1.381716         1.393772
 O        -3.894733         1.468000         1.679536
 C        -2.174696         0.169476         0.321592
 C        -2.646311         0.711645        -1.057636
 C        -2.167588         2.232005        -1.012114
 C        -1.566736         2.270608         0.404068
 H         0.597853         0.199689        -0.641720
 H        -1.362978        -0.073319         2.686733
 H        -0.646664         1.543263         2.842511
 H        -4.179873         2.330021         1.856266
 H        -2.313021        -0.897794         0.567188
 H        -2.216794         0.197465        -1.950822
 H        -3.726396         0.643310        -1.064328
 H        -1.197833         2.371385        -1.640437
 H        -2.967102         3.045242        -1.076879
 H        -1.055494         3.250660         0.647970
