19
Iteration:  2929
 O         0.507989         0.693913         0.323719
 C        -0.835488         0.983459         0.644999
 C        -1.278830         0.985753         2.140962
 C        -2.489893         1.294264         1.247134
 O        -3.817037         1.566779         1.777138
 C        -2.001913         0.239053         0.240002
 C        -2.719253         0.711071        -1.120488
 C        -2.232782         2.235094        -1.022261
 C        -1.706308         2.308228         0.301698
 H         0.565870         0.894526        -0.646838
 H        -1.234479        -0.008997         2.713457
 H        -0.831525         1.828615         2.755712
 H        -3.816642         0.948578         2.536726
 H        -1.940292        -0.839428         0.556161
 H        -2.252383         0.130925        -1.938398
 H        -3.803126         0.459049        -0.966318
 H        -1.402771         2.351036        -1.854549
 H        -2.962862         2.997342        -1.349288
 H        -1.204772         3.160513         0.708217
