19
Iteration:  4558charge 0 multiplicity 1
 O         0.516319         0.721102         0.415171
 C        -0.880576         1.053792         0.675999
 C        -1.280867         1.172607         2.137245
 C        -2.463596         1.490634         1.307829
 O        -3.773512         1.441513         1.795743
 C        -2.099584         0.260052         0.317570
 C        -2.598399         0.485546        -1.167049
 C        -2.338231         2.062748        -1.133762
 C        -1.628451         2.319467         0.192070
 H         0.525743         0.442566        -0.614869
 H        -1.146642         0.158036         2.589797
 H        -0.752723         1.958312         2.820238
 H        -3.962977         2.190925         2.355269
 H        -2.063315        -0.804939         0.660943
 H        -1.923269        -0.017117        -1.857461
 H        -3.647997         0.284039        -1.522808
 H        -1.742328         2.395981        -1.965275
 H        -3.395906         2.515042        -1.020321
 H        -1.295937         3.308458         0.539584
