19
Iteration:  2993charge 0 multiplicity 1
 O         0.493676         0.690695         0.193687
 C        -0.821229         1.076732         0.691130
 C        -1.280167         0.861625         2.210582
 C        -2.510785         1.315904         1.273077
 O        -3.746462         1.566553         1.811250
 C        -2.086148         0.172221         0.188048
 C        -2.521210         0.668917        -1.121666
 C        -2.260453         2.207322        -1.031611
 C        -1.771242         2.348334         0.433393
 H         0.469032         0.708650        -0.838499
 H        -1.538776        -0.101079         2.636717
 H        -0.969364         1.672029         2.862079
 H        -3.993088         2.379904         1.517602
 H        -2.026253        -0.871252         0.561187
 H        -2.016533         0.064343        -1.851584
 H        -3.634723         0.571237        -1.311286
 H        -1.508042         2.695947        -1.602497
 H        -3.186027         2.672130        -1.006941
 H        -1.529960         3.446472         0.557516
