19
Iteration:  1723charge 0 multiplicity 1
 O         0.557682         0.793850         0.137544
 C        -0.824039         1.021175         0.628152
 C        -1.317031         0.940799         2.124087
 C        -2.459146         1.428682         1.332192
 O        -3.756942         1.584656         1.702315
 C        -2.157509         0.234122         0.252581
 C        -2.661732         0.651776        -1.042470
 C        -2.221168         2.099889        -0.968406
 C        -1.706012         2.363792         0.422987
 H         0.735090        -0.136789        -0.021522
 H        -1.463433        -0.162701         2.561708
 H        -0.791835         1.619237         2.773769
 H        -4.054762         0.684481         1.864936
 H        -2.247823        -0.705115         0.680987
 H        -2.141999         0.078160        -1.808065
 H        -3.756843         0.505885        -1.108365
 H        -1.449616         2.383416        -1.706774
 H        -3.099631         2.740506        -1.224009
 H        -1.375708         3.243853         0.866858
