19
Iteration:  3791charge 0 multiplicity 1
 O         0.404519         0.865194         0.103909
 C        -0.859650         0.984492         0.696259
 C        -1.226299         0.939102         2.202399
 C        -2.529921         1.196545         1.291736
 O        -3.750028         1.584625         1.767567
 C        -2.138852         0.195529         0.213031
 C        -2.557485         0.737977        -1.143997
 C        -2.131417         2.190445        -0.945180
 C        -1.713922         2.210943         0.445470
 H         0.286894        -0.163763         0.022627
 H        -1.090873        -0.084258         2.715200
 H        -1.196629         1.710785         2.965476
 H        -4.012521         2.387472         1.142582
 H        -2.239636        -0.913286         0.153902
 H        -1.986439         0.335476        -1.984903
 H        -3.665443         0.746298        -1.135460
 H        -1.231854         2.377151        -1.524675
 H        -2.883412         3.020841        -1.225154
 H        -1.558373         3.100744         1.121780
