19
Iteration:   300charge 0 multiplicity 1
 O         0.601153         0.762053         0.232119
 C        -0.781461         0.957619         0.655165
 C        -1.182801         0.898822         2.159608
 C        -2.507453         1.315522         1.352416
 O        -3.862341         1.486297         1.716569
 C        -2.300900         0.343355         0.277627
 C        -2.558258         0.716611        -1.173054
 C        -2.298698         2.253219        -1.013404
 C        -1.616086         2.261093         0.345603
 H         0.427146         0.221071        -0.639883
 H        -1.138462        -0.149141         2.597960
 H        -0.934754         1.609513         2.972258
 H        -3.808067         1.882356         2.705105
 H        -2.762953        -0.693041         0.614676
 H        -1.840271         0.230839        -1.879740
 H        -3.531907         0.436728        -1.656134
 H        -1.800037         2.747588        -1.817812
 H        -3.281027         2.646610        -0.806925
 H        -1.196472         3.312870         0.792277
