19
Iteration:   474charge 0 multiplicity 1
 O         0.426207         0.730166         0.184500
 C        -0.809030         0.951409         0.653717
 C        -1.286759         0.964699         2.047792
 C        -2.515920         1.368806         1.239663
 O        -3.777199         1.482931         1.945705
 C        -2.229596         0.233898         0.229627
 C        -2.479473         0.701873        -1.242492
 C        -2.255714         2.267341        -0.990868
 C        -1.668732         2.277036         0.342420
 H         0.952816         0.339081         0.897415
 H        -1.372681        -0.053273         2.524136
 H        -0.864633         1.805609         2.631090
 H        -3.578855         1.989460         2.677371
 H        -2.300530        -0.902667         0.537474
 H        -1.722254         0.210727        -1.891876
 H        -3.545018         0.554560        -1.459791
 H        -1.512356         2.664364        -1.690027
 H        -3.246915         2.786775        -1.055006
 H        -1.256069         3.186035         0.691739
