19
Iteration:  1519charge 0 multiplicity 1
 O         0.615737         0.687621         0.189271
 C        -0.738261         0.868984         0.596483
 C        -1.213112         1.034589         2.115773
 C        -2.538706         1.275124         1.275962
 O        -3.892203         1.656388         1.686173
 C        -2.131265         0.189071         0.256598
 C        -2.711327         0.713835        -1.036859
 C        -2.309369         2.277396        -0.943485
 C        -1.617303         2.185265         0.432252
 H         1.066196         1.565837         0.041306
 H        -1.096133         0.134621         2.649161
 H        -0.961496         2.032566         2.575745
 H        -4.290195         0.926866         2.022360
 H        -2.125100        -0.968551         0.441449
 H        -2.329815         0.268921        -1.991142
 H        -3.763530         0.384278        -1.089986
 H        -1.627289         2.615198        -1.748015
 H        -3.118975         2.988195        -0.939197
 H        -1.214873         3.185796         0.977364
