19
Iteration:  1521
 O         0.615623         0.685848         0.188377
 C        -0.737987         0.872595         0.597852
 C        -1.211302         1.046740         2.115193
 C        -2.547211         1.273670         1.277494
 O        -3.885241         1.659000         1.675304
 C        -2.121553         0.187177         0.245607
 C        -2.710331         0.712720        -1.027455
 C        -2.293138         2.266969        -0.950148
 C        -1.618027         2.179394         0.449443
 H         0.944529         1.543894         0.070247
 H        -1.079382         0.146432         2.600437
 H        -0.945812         2.101420         2.539053
 H        -4.351365         0.837030         2.063051
 H        -2.170565        -0.883784         0.422147
 H        -2.448184         0.252573        -2.015225
 H        -3.757906         0.436116        -1.101639
 H        -1.662294         2.677807        -1.719111
 H        -3.146263         2.920361        -0.859872
 H        -1.188561         3.148137         0.992456
