19
Iteration:  2089
 O         0.427994         0.884666         0.090005
 C        -0.859755         0.943270         0.658621
 C        -1.264971         1.007892         2.161316
 C        -2.509098         1.238911         1.438797
 O        -3.775376         1.684368         1.881977
 C        -2.193475         0.159743         0.194885
 C        -2.503808         0.695498        -1.268653
 C        -2.120800         2.133981        -1.027283
 C        -1.742969         2.206179         0.390969
 H         0.797668         0.071666         0.075430
 H        -1.219397         0.096880         2.731755
 H        -0.980019         1.854804         2.806744
 H        -4.348900         1.006861         2.224440
 H        -2.417631        -0.859625         0.590495
 H        -1.858997         0.120200        -1.918252
 H        -3.606003         0.793723        -1.551255
 H        -1.101150         2.376209        -1.473743
 H        -2.911716         2.828318        -1.093054
 H        -1.457602         3.164948         0.778543
