19
Iteration:  4000charge 0 multiplicity 1
 O         0.515091         0.722600         0.312370
 C        -0.791618         1.075885         0.634858
 C        -1.217965         0.951618         2.094155
 C        -2.500963         1.271413         1.301474
 O        -3.876759         1.444492         1.924860
 C        -2.274820         0.297063         0.215751
 C        -2.570926         0.656257        -1.204938
 C        -2.129359         2.261938        -1.116924
 C        -1.667843         2.331218         0.351571
 H         0.536413        -0.055378        -0.159686
 H        -1.156562        -0.119555         2.449664
 H        -1.086736         1.632317         2.926469
 H        -3.892271         2.360519         2.035404
 H        -2.252725        -0.762821         0.494625
 H        -1.927982        -0.021557        -1.817803
 H        -3.692283         0.679043        -1.331520
 H        -1.368802         2.515421        -1.868528
 H        -3.100451         2.769857        -1.278487
 H        -1.428680         3.355887         0.760147
