19
Iteration:  1283charge 0 multiplicity 1
 O         0.466583         0.796512         0.122529
 C        -0.854141         0.853621         0.603549
 C        -1.224424         1.014460         2.092826
 C        -2.567590         1.319599         1.289734
 O        -3.833274         1.662948         1.954570
 C        -2.180753         0.186458         0.207699
 C        -2.406153         0.711201        -1.169789
 C        -2.213532         2.220996        -1.011036
 C        -1.766394         2.211952         0.459415
 H         0.501856         0.159376        -0.540568
 H        -1.218749         0.225154         2.856356
 H        -0.779988         1.768104         2.563706
 H        -4.052413         0.806864         2.467848
 H        -2.457380        -0.893916         0.403261
 H        -1.540106         0.350206        -1.772346
 H        -3.366263         0.575747        -1.643837
 H        -1.260551         2.533613        -1.558340
 H        -3.047413         2.969200        -1.262133
 H        -1.360426         3.116309         0.897242
