19
Iteration:   219charge 0 multiplicity 1
 O         0.408845         0.865915         0.128175
 C        -0.916472         0.941772         0.614165
 C        -1.274726         0.911408         2.005575
 C        -2.515687         1.342911         1.309767
 O        -3.796401         1.374126         1.796011
 C        -2.247033         0.265101         0.356740
 C        -2.531001         0.756284        -1.078670
 C        -2.124919         2.255124        -1.003162
 C        -1.585229         2.246768         0.403586
 H         0.805206         0.040433         0.687137
 H        -1.195577        -0.106030         2.366608
 H        -0.821058         1.688928         2.694145
 H        -4.013674         2.406015         2.051823
 H        -2.393489        -0.704131         0.692344
 H        -1.965985         0.200829        -1.852771
 H        -3.613135         0.731172        -1.252644
 H        -1.312655         2.535894        -1.684658
 H        -2.922804         2.935205        -1.330426
 H        -1.030593         2.969169         0.851012
