19
Iteration:  4441
 O         0.455693         0.791204         0.254202
 C        -0.802789         1.033964         0.676119
 C        -1.290295         1.210546         2.154140
 C        -2.516270         1.254152         1.272913
 O        -3.780180         1.608609         1.852449
 C        -2.119403         0.168445         0.318303
 C        -2.500412         0.473502        -1.077560
 C        -2.179420         2.088196        -1.134757
 C        -1.779547         2.210741         0.287041
 H         0.408127         1.099241        -0.778420
 H        -1.213014         0.315164         2.785744
 H        -0.972761         2.051450         2.752982
 H        -3.877067         2.541036         1.532806
 H        -2.242207        -0.830854         0.734429
 H        -2.222223        -0.235389        -1.935636
 H        -3.581717         0.530235        -1.143564
 H        -1.239514         2.401466        -1.737838
 H        -3.153729         2.482235        -1.274252
 H        -1.453374         3.141163         0.722240
