19
Iteration:  1047
 O         0.589205         0.826169         0.086404
 C        -0.752039         0.847627         0.683375
 C        -1.255964         0.947552         2.172285
 C        -2.507754         1.179137         1.315384
 O        -3.837439         1.687782         1.710335
 C        -2.147408         0.158987         0.190361
 C        -2.736474         0.854108        -1.072958
 C        -2.234818         2.278727        -0.954770
 C        -1.638546         2.143302         0.433027
 H         1.157809         0.228760         0.746992
 H        -1.141897         0.068468         2.772806
 H        -0.829469         1.928508         2.595096
 H        -4.492545         0.900139         1.566338
 H        -2.277277        -0.934482         0.307152
 H        -2.380070         0.392904        -2.032544
 H        -3.877698         0.794931        -0.909731
 H        -1.465899         2.534714        -1.719404
 H        -3.053164         3.060013        -0.873337
 H        -1.386375         3.068800         0.901099
