19
Iteration:   397charge 0 multiplicity 1
 O         0.400741         0.710680         0.097581
 C        -0.795818         0.941306         0.718321
 C        -1.255761         0.946247         2.275132
 C        -2.447663         1.296368         1.363254
 O        -3.793538         1.452759         1.651473
 C        -2.128036         0.213159         0.284680
 C        -2.655658         0.794879        -1.133378
 C        -2.227253         2.274071        -1.026838
 C        -1.624334         2.222879         0.381229
 H         0.833882         1.636931        -0.118001
 H        -1.179082        -0.110717         2.684251
 H        -0.801006         1.588481         3.084818
 H        -3.925330         2.490931         1.927144
 H        -2.378305        -0.858861         0.631993
 H        -2.151743         0.303003        -2.016859
 H        -3.717103         0.511793        -1.207360
 H        -1.495098         2.487556        -1.801112
 H        -3.015113         3.042597        -0.917623
 H        -1.273126         3.184651         0.703785
