19
Iteration:  4131charge 0 multiplicity 1
 O         0.431844         0.682880         0.261970
 C        -0.847873         0.953938         0.648026
 C        -1.196524         1.077652         2.094263
 C        -2.580228         1.292872         1.283888
 O        -3.792626         1.567248         1.818249
 C        -2.139105         0.250088         0.228085
 C        -2.513167         0.699946        -1.142757
 C        -2.155366         2.155942        -1.086985
 C        -1.769531         2.252977         0.345771
 H         0.982241         1.456978         0.291243
 H        -1.280779         0.120554         2.614800
 H        -0.836325         1.854153         2.730014
 H        -3.901406         1.451008         2.803676
 H        -2.182334        -0.788370         0.552957
 H        -2.056014         0.033854        -1.812856
 H        -3.534266         0.426497        -1.369773
 H        -1.361076         2.457574        -1.786492
 H        -3.088052         2.712374        -1.240255
 H        -1.550602         3.241176         0.795069
