19
Iteration:  1571charge 0 multiplicity 1
 O         0.465775         0.655612         0.070798
 C        -0.758891         1.030741         0.648201
 C        -1.257941         0.878217         2.126753
 C        -2.521245         1.373457         1.330517
 O        -3.856623         1.630510         1.778919
 C        -2.123034         0.279370         0.300223
 C        -2.515056         0.659754        -1.085194
 C        -2.227445         2.162458        -1.012288
 C        -1.709242         2.337453         0.409526
 H         1.266948         1.298545         0.184816
 H        -1.370036        -0.209746         2.494583
 H        -0.825781         1.559998         2.816717
 H        -4.214696         0.885422         2.207132
 H        -2.183876        -0.831503         0.614529
 H        -2.207320         0.080280        -1.945818
 H        -3.637708         0.546693        -1.110570
 H        -1.464392         2.560781        -1.753959
 H        -3.227751         2.693157        -1.088178
 H        -1.526542         3.357630         0.677755
