19
Iteration:   739
 O         0.583108         0.630178         0.297356
 C        -0.761170         0.959170         0.581968
 C        -1.241357         0.953067         2.100165
 C        -2.528818         1.271095         1.325974
 O        -3.873877         1.516626         1.813083
 C        -2.102740         0.256412         0.166268
 C        -2.667202         0.824767        -1.192904
 C        -2.242089         2.263925        -0.969024
 C        -1.722575         2.250938         0.395888
 H         0.748950         0.900844        -0.569810
 H        -1.205196         0.013384         2.652890
 H        -0.611828         1.729089         2.602276
 H        -3.752323         1.901690         2.726280
 H        -2.191216        -0.864336         0.309512
 H        -2.371272         0.164592        -2.009514
 H        -3.773718         0.705516        -1.195085
 H        -1.512855         2.857773        -1.588407
 H        -3.184567         2.972483        -1.090626
 H        -1.301430         3.081397         0.807849
