19
Iteration:  4698charge 0 multiplicity 1
 O         0.586089         0.756911         0.409253
 C        -0.773854         1.084400         0.702284
 C        -1.197469         1.177594         2.099893
 C        -2.495687         1.375564         1.192903
 O        -3.869223         1.528273         1.786535
 C        -2.123357         0.238007         0.266176
 C        -2.647135         0.457553        -1.106770
 C        -2.308692         2.078851        -1.097191
 C        -1.676180         2.293751         0.224692
 H         0.562282         0.602098        -0.523963
 H        -1.345583         0.286481         2.657112
 H        -0.840666         1.998859         2.775939
 H        -3.792200         1.794691         2.707707
 H        -2.245468        -0.796617         0.668475
 H        -2.164649        -0.123807        -1.936980
 H        -3.793526         0.211925        -1.278244
 H        -1.560664         2.225028        -1.869450
 H        -3.245393         2.611673        -1.085600
 H        -1.370027         3.333209         0.681147
