19
Iteration:   927charge 0 multiplicity 1
 O         0.514518         0.834955         0.056841
 C        -0.765327         1.014609         0.603942
 C        -1.318314         0.796670         2.143021
 C        -2.537791         1.348830         1.302445
 O        -3.848160         1.600087         1.755456
 C        -2.206181         0.241666         0.240517
 C        -2.555162         0.720381        -1.095826
 C        -2.209054         2.191052        -0.918365
 C        -1.591352         2.299996         0.464368
 H         0.805157        -0.056981        -0.034595
 H        -1.501702        -0.179722         2.366547
 H        -0.921773         1.403015         2.982342
 H        -3.916696         1.179959         2.590006
 H        -2.427629        -0.782540         0.512160
 H        -1.931974         0.235616        -1.853676
 H        -3.628369         0.553564        -1.316028
 H        -1.651819         2.544340        -1.830508
 H        -3.197806         2.810459        -0.855553
 H        -1.088601         3.159515         0.863816
