19
Iteration:   421
 O         0.458671         0.581373         0.102242
 C        -0.782061         0.999245         0.625090
 C        -1.217463         0.995899         2.076651
 C        -2.517884         1.263345         1.287236
 O        -3.877681         1.555181         1.661746
 C        -2.065460         0.208546         0.211970
 C        -2.577894         0.737335        -1.068820
 C        -2.248069         2.246546        -0.920509
 C        -1.735991         2.335124         0.536446
 H         1.202149         1.215388         0.339241
 H        -1.139991        -0.011143         2.693315
 H        -0.808715         1.760522         2.793614
 H        -3.773631         2.171850         2.372596
 H        -2.009876        -0.935790         0.485529
 H        -2.081336         0.238502        -1.946421
 H        -3.701062         0.479717        -1.102654
 H        -1.586469         2.533080        -1.685914
 H        -3.207677         2.756261        -0.922721
 H        -1.456603         3.337337         1.069876
