19
Iteration:   826charge 0 multiplicity 1
 O         0.317399         0.813755         0.045801
 C        -0.895121         0.985841         0.663572
 C        -1.249326         0.920513         2.134288
 C        -2.476035         1.278089         1.263785
 O        -3.730085         1.591938         1.815604
 C        -2.192072         0.212619         0.244023
 C        -2.503449         0.754015        -1.111094
 C        -2.198644         2.245171        -0.946351
 C        -1.580180         2.242399         0.478366
 H         0.802812         0.077557         0.395900
 H        -1.181643        -0.028760         2.583107
 H        -0.856928         1.650884         2.765646
 H        -4.330359         0.750861         1.584480
 H        -2.427209        -0.858252         0.555532
 H        -1.825400         0.320898        -1.859941
 H        -3.512042         0.466474        -1.549676
 H        -1.522382         2.671755        -1.706605
 H        -3.117404         2.932003        -1.009965
 H        -1.288787         3.046495         1.047537
