19
Iteration:  3605
 O         0.427463         0.622454         0.237376
 C        -0.868437         0.973688         0.667447
 C        -1.371337         0.921272         2.137283
 C        -2.522430         1.390099         1.321540
 O        -3.728721         1.402918         1.980595
 C        -2.072205         0.278506         0.204486
 C        -2.579354         0.771404        -1.228265
 C        -2.206537         2.275320        -1.071757
 C        -1.571340         2.283655         0.276503
 H         1.064239         1.364019         0.558265
 H        -1.452491        -0.047701         2.699307
 H        -1.043138         1.761459         2.770653
 H        -4.449268         1.623878         1.237152
 H        -2.341590        -0.728018         0.473878
 H        -2.030626         0.254911        -1.985619
 H        -3.650239         0.860847        -1.377988
 H        -1.467059         2.673473        -1.750326
 H        -3.066300         3.001191        -1.226565
 H        -1.437959         3.260682         0.744402
