19
Iteration:   588
 O         0.462836         0.686945         0.258151
 C        -0.779078         0.970512         0.636091
 C        -1.273491         1.005722         2.155390
 C        -2.477383         1.343224         1.286774
 O        -3.764787         1.440991         1.787825
 C        -2.062648         0.245191         0.178761
 C        -2.642841         0.793423        -1.158336
 C        -2.313147         2.284760        -1.063943
 C        -1.691765         2.249298         0.395944
 H         0.437074        -0.173991        -0.063798
 H        -1.176748         0.010405         2.600445
 H        -0.784853         1.835985         2.747127
 H        -3.751092         1.992331         2.562652
 H        -2.162991        -0.761439         0.513842
 H        -2.071731         0.359905        -1.964535
 H        -3.711719         0.575305        -1.165022
 H        -1.622931         2.566794        -1.806297
 H        -3.181766         2.843525        -0.955679
 H        -1.256219         3.169517         0.933589
