19
Iteration:  3912
 O         0.410489         0.794518         0.233623
 C        -0.885956         0.918577         0.668351
 C        -1.124962         0.853468         2.115230
 C        -2.519216         1.341141         1.312455
 O        -3.771611         1.624547         1.760629
 C        -2.195362         0.251891         0.230658
 C        -2.553451         0.753361        -1.191415
 C        -2.234548         2.200317        -1.004569
 C        -1.653478         2.275446         0.393494
 H         0.841051         0.204994         0.910203
 H        -1.290911        -0.222876         2.496123
 H        -0.665901         1.588152         2.786149
 H        -4.325770         0.884197         1.691579
 H        -2.166357        -0.739145         0.709506
 H        -1.873497         0.270323        -1.960894
 H        -3.661112         0.614481        -1.355589
 H        -1.710301         2.637639        -1.854197
 H        -3.147701         2.871759        -1.102675
 H        -1.217638         3.237761         0.788727
