19
Iteration:  1573
 O         0.452170         0.660754         0.065091
 C        -0.753203         1.031000         0.651975
 C        -1.249122         0.871957         2.121664
 C        -2.524730         1.382910         1.320075
 O        -3.872999         1.636875         1.800869
 C        -2.121912         0.271711         0.295781
 C        -2.499879         0.655334        -1.095983
 C        -2.221201         2.158113        -1.009975
 C        -1.709901         2.316518         0.403028
 H         1.179020         1.272631         0.254434
 H        -1.353075        -0.123650         2.576729
 H        -0.775231         1.600775         2.856417
 H        -4.187694         0.888148         2.205969
 H        -2.172912        -0.897009         0.582686
 H        -2.177021         0.129172        -2.015147
 H        -3.641424         0.599848        -1.129401
 H        -1.459511         2.574944        -1.730107
 H        -3.188193         2.670192        -1.051261
 H        -1.531341         3.447539         0.660316
