19
Iteration:  4091
 O         0.428697         0.700951         0.155623
 C        -0.768266         1.008759         0.699565
 C        -1.323528         0.973392         2.157114
 C        -2.468475         1.342223         1.324255
 O        -3.843937         1.505625         1.698711
 C        -2.106439         0.265045         0.344856
 C        -2.536371         0.675679        -1.055405
 C        -2.248975         2.160490        -1.009901
 C        -1.594523         2.251646         0.391451
 H         0.482809         1.264594        -0.696338
 H        -1.356868         0.016456         2.696947
 H        -1.017591         1.827643         2.882839
 H        -4.121202         2.232814         1.124080
 H        -2.207707        -0.811770         0.490264
 H        -1.862532         0.181409        -1.895554
 H        -3.602421         0.516049        -1.251657
 H        -1.595243         2.556960        -1.837232
 H        -3.183916         2.720062        -0.857839
 H        -1.329082         3.226533         0.769098
