19
Iteration:  2290
 O         0.444313         0.689794         0.107380
 C        -0.756561         0.987949         0.732748
 C        -1.228257         0.939385         2.178934
 C        -2.514711         1.321928         1.330898
 O        -3.839041         1.613143         1.783746
 C        -2.100733         0.270685         0.238338
 C        -2.479511         0.665977        -1.200348
 C        -2.276093         2.228195        -1.040600
 C        -1.692221         2.375934         0.429204
 H         0.573721        -0.347964         0.127758
 H        -1.098837        -0.061744         2.722710
 H        -0.829458         1.721151         2.862046
 H        -4.192209         0.784137         2.333545
 H        -2.436195        -0.771480         0.435932
 H        -1.933111         0.175566        -2.040061
 H        -3.586391         0.488633        -1.322745
 H        -1.822840         2.851757        -1.784749
 H        -3.368674         2.556693        -1.009021
 H        -1.407364         3.460085         0.692994
