19
Iteration:   459charge 0 multiplicity 1
 O         0.443359         0.668202         0.157947
 C        -0.858993         1.018381         0.638032
 C        -1.302990         0.978730         2.163042
 C        -2.487779         1.284432         1.269797
 O        -3.681670         1.451454         1.808956
 C        -2.266973         0.270728         0.243720
 C        -2.537443         0.738778        -1.161295
 C        -2.296953         2.235171        -1.069296
 C        -1.593172         2.312082         0.380137
 H         0.959914         0.630866         1.088486
 H        -1.309609         0.018015         2.566420
 H        -0.948273         1.737647         2.863565
 H        -3.603180         1.844226         2.814640
 H        -2.598919        -0.672982         0.529801
 H        -1.725961         0.369343        -1.801002
 H        -3.366063         0.363065        -1.730694
 H        -1.927133         2.748887        -2.039902
 H        -3.218775         2.837532        -0.898424
 H        -1.316472         3.314588         0.865936
