19
Iteration:  4547charge 0 multiplicity 1
 O         0.474932         0.671563         0.470045
 C        -0.765192         1.084378         0.576718
 C        -1.243137         1.167343         2.117242
 C        -2.480215         1.427988         1.292183
 O        -3.764616         1.425083         1.768675
 C        -2.118089         0.240718         0.382809
 C        -2.582263         0.566273        -1.118985
 C        -2.407272         2.095280        -1.182470
 C        -1.680852         2.294711         0.229587
 H         0.779670         0.552260        -0.511817
 H        -1.187753         0.159403         2.622970
 H        -0.882990         2.156899         2.643367
 H        -3.786096         2.125934         2.461133
 H        -2.173335        -0.714466         0.991731
 H        -1.891996         0.224357        -1.896689
 H        -3.556989         0.031390        -1.319847
 H        -1.782222         2.369136        -2.020714
 H        -3.262673         2.872158        -1.442867
 H        -1.296392         3.321906         0.407486
