19
Iteration:  1792charge 0 multiplicity 1
 O         0.393999         0.802798         0.033285
 C        -0.827907         0.960920         0.709585
 C        -1.271679         0.898036         2.176646
 C        -2.546931         1.331781         1.334431
 O        -3.819797         1.678407         1.880490
 C        -2.162275         0.216907         0.269720
 C        -2.404046         0.639768        -1.150049
 C        -2.223889         2.187917        -1.119061
 C        -1.704237         2.299529         0.386971
 H         0.935552         0.046903         0.459126
 H        -1.310917        -0.182683         2.643703
 H        -0.790996         1.757644         2.827202
 H        -3.905769         1.088405         2.765350
 H        -2.278921        -0.925403         0.404475
 H        -1.586811         0.231042        -1.777819
 H        -3.448107         0.399160        -1.534649
 H        -1.503153         2.658384        -1.951503
 H        -3.205250         2.710531        -1.255911
 H        -1.407065         3.284058         0.804997
