19
Iteration:  2434
 O         0.425570         0.746839         0.127900
 C        -0.811169         1.081014         0.699463
 C        -1.276310         0.928725         2.178040
 C        -2.467639         1.318451         1.276691
 O        -3.772811         1.544358         1.779346
 C        -2.138361         0.253814         0.254373
 C        -2.590426         0.727936        -1.096451
 C        -2.206824         2.194256        -1.089553
 C        -1.654621         2.339977         0.398786
 H         0.462820        -0.306586         0.226010
 H        -1.393753        -0.105832         2.635160
 H        -1.078746         1.594462         3.025600
 H        -4.023883         0.669796         2.254232
 H        -2.276388        -0.804028         0.546465
 H        -2.031235         0.207054        -1.978415
 H        -3.705230         0.603931        -1.141510
 H        -1.272766         2.319620        -1.672593
 H        -2.997066         2.888212        -1.441334
 H        -1.379866         3.331676         0.878794
