19
Iteration:  4338
 O         0.495493         0.830965         0.192407
 C        -0.788103         1.048717         0.661217
 C        -1.174690         1.108221         2.126313
 C        -2.557923         1.331577         1.342249
 O        -3.875359         1.688199         1.624587
 C        -2.153805         0.205706         0.387430
 C        -2.530405         0.461367        -1.065867
 C        -2.241449         2.045931        -1.005720
 C        -1.670171         2.216883         0.364076
 H         0.398382         0.674402        -0.680182
 H        -1.126941         0.100427         2.586032
 H        -0.913706         2.028591         2.708378
 H        -4.161995         1.443032         2.501169
 H        -2.192104        -0.892453         0.617888
 H        -1.962246        -0.150921        -1.772900
 H        -3.587671         0.164792        -1.343783
 H        -1.505330         2.440558        -1.741420
 H        -3.077656         2.814892        -1.131479
 H        -1.392222         3.229889         0.776963
