19
Iteration:  2743
 O         0.549697         0.843046         0.192424
 C        -0.821235         0.981814         0.682002
 C        -1.241697         0.857330         2.149982
 C        -2.556436         1.256629         1.352269
 O        -3.764289         1.728886         1.718602
 C        -2.153103         0.117238         0.254795
 C        -2.682950         0.687234        -1.056233
 C        -2.171567         2.178679        -1.063426
 C        -1.708274         2.284491         0.408724
 H         0.647571         1.250432        -0.695520
 H        -1.206483        -0.151180         2.531708
 H        -0.972323         1.628557         2.871168
 H        -4.213031         1.019336         2.076811
 H        -2.101903        -0.962618         0.496833
 H        -2.187697        -0.035320        -1.797894
 H        -3.730743         0.512808        -1.195560
 H        -1.286603         2.415220        -1.726563
 H        -2.985009         2.775246        -1.458427
 H        -1.502501         3.218358         0.897663
