19
Iteration:  3826charge 0 multiplicity 1
 O         0.462143         0.844399         0.019819
 C        -0.805152         0.937977         0.712257
 C        -1.242906         0.881802         2.191283
 C        -2.540024         1.391735         1.301453
 O        -3.874802         1.480389         1.741941
 C        -2.201152         0.253188         0.259300
 C        -2.509491         0.707194        -1.083218
 C        -2.147695         2.230906        -0.952314
 C        -1.600862         2.238984         0.449396
 H         0.843731        -0.142807         0.019495
 H        -1.511691        -0.169098         2.537624
 H        -0.925959         1.622334         2.950438
 H        -4.356661         2.384507         1.873787
 H        -2.595237        -0.732395         0.529820
 H        -2.081984         0.198174        -1.978174
 H        -3.519452         0.486717        -1.391713
 H        -1.389207         2.482547        -1.711343
 H        -3.034787         2.937915        -1.074404
 H        -1.255062         3.208839         0.826095
