19
Iteration:  3147charge 0 multiplicity 1
 O         0.453040         0.723153         0.203658
 C        -0.805422         1.026055         0.683879
 C        -1.263333         0.850804         2.156864
 C        -2.460695         1.288065         1.381560
 O        -3.821220         1.617132         1.667804
 C        -2.079832         0.211831         0.247260
 C        -2.575896         0.674460        -1.201417
 C        -2.240025         2.257966        -1.008687
 C        -1.755510         2.249053         0.482145
 H         0.545336         1.042259        -0.685897
 H        -1.370958        -0.180509         2.462073
 H        -0.773015         1.579748         2.820370
 H        -3.832596         2.071324         2.565807
 H        -2.109586        -0.816148         0.652668
 H        -1.917611         0.323938        -1.989013
 H        -3.645059         0.368070        -1.309413
 H        -1.508765         2.547176        -1.761797
 H        -3.026754         2.936925        -1.277677
 H        -1.303381         3.153575         0.990334
