19
Iteration:  4896
 O         0.446029         0.783143         0.187663
 C        -0.872151         0.994476         0.722979
 C        -1.234606         1.208179         2.260047
 C        -2.499168         1.327914         1.267130
 O        -3.820531         1.608698         1.650292
 C        -2.119002         0.166114         0.374634
 C        -2.442701         0.516575        -1.025409
 C        -2.298900         2.108269        -1.080107
 C        -1.692634         2.193637         0.260190
 H         0.294758         1.139727        -0.772813
 H        -1.207216         0.211394         2.627357
 H        -0.881235         2.017887         2.872645
 H        -3.833764         1.889895         2.590144
 H        -2.178605        -0.877790         0.731014
 H        -1.761127        -0.027958        -1.667726
 H        -3.535765         0.257336        -1.299310
 H        -1.568078         2.380198        -1.769062
 H        -3.136379         2.568980        -1.431662
 H        -1.291409         3.161558         0.667604
