19
Iteration:  3086
 O         0.459577         0.632098         0.328528
 C        -0.766488         1.042247         0.646149
 C        -1.183645         0.940513         2.127603
 C        -2.567495         1.339683         1.270092
 O        -3.800536         1.563493         1.770089
 C        -2.034389         0.247376         0.156399
 C        -2.623564         0.721407        -1.146478
 C        -2.209366         2.249119        -1.093875
 C        -1.787447         2.297547         0.454578
 H         0.765251         0.907090        -0.493419
 H        -1.301058        -0.053123         2.673846
 H        -0.677832         1.696185         2.778169
 H        -3.994159         0.888183         2.564877
 H        -2.243555        -0.808973         0.389178
 H        -2.457545         0.194623        -2.137724
 H        -3.713802         0.704245        -1.016260
 H        -1.304718         2.545444        -1.752026
 H        -3.206379         2.789222        -1.259846
 H        -1.339816         3.127805         1.013118
