19
Iteration:  4291
 O         0.526579         0.710474         0.293143
 C        -0.822171         1.076406         0.592746
 C        -1.334660         1.193155         2.147066
 C        -2.576603         1.309632         1.306256
 O        -3.802677         1.523581         1.941031
 C        -2.097798         0.177913         0.321184
 C        -2.574822         0.558300        -1.197930
 C        -2.220770         2.061290        -1.104820
 C        -1.648040         2.268543         0.294148
 H         0.902924         1.108710        -0.543993
 H        -1.194417         0.236621         2.744449
 H        -0.957365         2.094176         2.609453
 H        -4.231780         2.362649         1.615446
 H        -2.199892        -0.823403         0.763913
 H        -1.979088        -0.097276        -1.862862
 H        -3.639018         0.363400        -1.467643
 H        -1.594402         2.502293        -1.836611
 H        -3.140796         2.643885        -1.329813
 H        -1.248286         3.284773         0.580981
