19
Iteration:  4649charge 0 multiplicity 1
 O         0.521577         0.752791         0.283567
 C        -0.810795         1.026245         0.640670
 C        -1.257690         1.174282         2.172047
 C        -2.546326         1.369187         1.308031
 O        -3.834091         1.471478         1.748932
 C        -2.099243         0.266254         0.356321
 C        -2.606574         0.538813        -1.103891
 C        -2.254779         2.018190        -1.100005
 C        -1.636429         2.301851         0.329136
 H         0.650483         1.070057        -0.685118
 H        -1.035982         0.224937         2.764495
 H        -0.940105         2.121188         2.603503
 H        -4.171060         2.359695         1.962802
 H        -2.238485        -0.712476         0.801842
 H        -2.081412        -0.134348        -1.814460
 H        -3.617560         0.324856        -1.338060
 H        -1.462741         2.069176        -1.884838
 H        -3.180467         2.577596        -1.348531
 H        -1.377812         3.339655         0.509468
