19
Iteration:  3619
 O         0.423519         0.618929         0.220583
 C        -0.842370         0.975738         0.678857
 C        -1.303764         0.955976         2.111803
 C        -2.500818         1.259631         1.247004
 O        -3.729842         1.529702         1.935674
 C        -2.115320         0.241807         0.164332
 C        -2.533774         0.790088        -1.169172
 C        -2.157449         2.278021        -1.117245
 C        -1.777996         2.338388         0.469620
 H         1.088162         1.124361         0.673456
 H        -1.301776        -0.100686         2.538884
 H        -0.876961         1.644412         2.821613
 H        -4.461602         1.503815         1.384788
 H        -2.119081        -0.853124         0.362048
 H        -2.231539         0.251002        -2.126743
 H        -3.620242         0.521099        -1.189561
 H        -1.400549         2.531862        -1.867801
 H        -3.094797         2.855462        -1.278750
 H        -1.300804         3.236993         0.875826
