19
Iteration:  2612
 O         0.502642         0.815723         0.217773
 C        -0.841370         0.982056         0.687175
 C        -1.197312         0.856163         2.158908
 C        -2.536333         1.321044         1.358720
 O        -3.808318         1.781420         1.724440
 C        -2.031551         0.152168         0.206296
 C        -2.612020         0.671925        -1.098811
 C        -2.243315         2.190086        -1.020253
 C        -1.753806         2.219994         0.435994
 H         0.589898         0.560733        -0.768529
 H        -1.119769        -0.207121         2.500316
 H        -0.767857         1.526344         2.931439
 H        -4.294318         0.963289         2.216780
 H        -2.078297        -0.908753         0.365850
 H        -2.149264         0.249470        -2.119273
 H        -3.647255         0.482684        -1.256580
 H        -1.529828         2.338583        -1.837043
 H        -3.103895         2.768425        -1.342030
 H        -1.416938         3.139247         0.815236
