19
Iteration:  2528
 O         0.428215         0.628079         0.269221
 C        -0.798330         1.054383         0.596688
 C        -1.272979         0.946224         2.114401
 C        -2.501715         1.280649         1.319007
 O        -3.747140         1.610527         1.779602
 C        -2.090909         0.252728         0.240667
 C        -2.565993         0.638104        -1.136005
 C        -2.267837         2.277038        -0.984216
 C        -1.721838         2.333306         0.378661
 H         0.626990         0.816686        -0.606599
 H        -1.222660         0.044815         2.777253
 H        -0.892237         1.794276         2.746212
 H        -4.094704         0.817276         2.156587
 H        -1.964810        -0.806457         0.575427
 H        -1.921558         0.229873        -1.818277
 H        -3.644480         0.472201        -1.350851
 H        -1.516333         2.342081        -1.770557
 H        -3.152124         2.896105        -1.280649
 H        -1.478919         3.361944         0.754579
