19
Iteration:    84
 O         0.548118         0.758357         0.185947
 C        -0.772612         0.947941         0.711260
 C        -1.170956         0.854236         2.159666
 C        -2.546489         1.268180         1.355119
 O        -3.886333         1.487977         1.785338
 C        -2.140723         0.227531         0.169263
 C        -2.564239         0.842109        -1.173068
 C        -2.238758         2.283515        -1.032694
 C        -1.728838         2.270484         0.457510
 H         0.540032        -0.163964        -0.324932
 H        -1.338072        -0.162449         2.671212
 H        -0.670566         1.642656         2.734172
 H        -3.915762         2.548802         1.878605
 H        -2.199603        -0.911421         0.398094
 H        -2.167766         0.327571        -2.072680
 H        -3.665054         0.660960        -1.378592
 H        -1.499224         2.772240        -1.801191
 H        -3.156674         2.947641        -1.058673
 H        -1.561015         3.237893         0.963556
