19
Iteration:  4010charge 0 multiplicity 1
 O         0.508712         0.731017         0.343977
 C        -0.825533         1.040089         0.669452
 C        -1.301218         0.952650         2.106320
 C        -2.557912         1.327052         1.311625
 O        -3.790777         1.448337         1.912694
 C        -2.159278         0.254536         0.200350
 C        -2.561844         0.717965        -1.217988
 C        -2.206693         2.189867        -1.113985
 C        -1.666778         2.340875         0.311094
 H         0.638694        -0.065397        -0.215356
 H        -1.289584        -0.093477         2.495996
 H        -0.987445         1.688540         2.827646
 H        -3.801392         2.259245         2.416864
 H        -2.326787        -0.824687         0.422401
 H        -2.143626         0.272867        -2.123183
 H        -3.666278         0.472307        -1.350442
 H        -1.454922         2.513672        -1.826636
 H        -2.985867         2.942872        -1.302848
 H        -1.117869         3.259568         0.665447
