19
Iteration:  2622charge 0 multiplicity 1
 O         0.513799         0.833114         0.240242
 C        -0.783480         0.940366         0.587530
 C        -1.295000         0.917937         2.062796
 C        -2.496847         1.296014         1.354941
 O        -3.796221         1.759416         1.726949
 C        -2.119393         0.196187         0.234053
 C        -2.579039         0.659891        -1.133365
 C        -2.299711         2.154424        -0.968182
 C        -1.693218         2.191179         0.452101
 H         0.564521         0.455220        -0.699897
 H        -1.143731        -0.054922         2.537584
 H        -0.897677         1.740381         2.681623
 H        -4.309819         0.996806         2.265404
 H        -2.178993        -0.807797         0.611422
 H        -1.889835         0.116081        -1.917654
 H        -3.606017         0.434715        -1.229466
 H        -1.446438         2.566085        -1.536143
 H        -3.033400         2.914601        -0.910806
 H        -1.337780         3.071073         0.953882
