19
Iteration:  2695
 O         0.452614         0.599688         0.239855
 C        -0.779469         1.005731         0.682280
 C        -1.207580         1.035650         2.144345
 C        -2.534895         1.293397         1.321985
 O        -3.775643         1.584934         1.794356
 C        -2.118829         0.272987         0.253471
 C        -2.500372         0.714717        -1.158197
 C        -2.293978         2.244334        -1.051632
 C        -1.773502         2.269408         0.350970
 H         0.708762         0.760334        -0.656408
 H        -1.188398         0.083880         2.698051
 H        -0.794190         1.879081         2.701392
 H        -4.189778         0.816640         2.278757
 H        -2.229305        -0.760805         0.627014
 H        -1.891063         0.291892        -1.889476
 H        -3.589391         0.430162        -1.312880
 H        -1.503664         2.576022        -1.755705
 H        -3.193852         2.850021        -1.284407
 H        -1.455584         3.257506         0.841675
