19
Iteration:  4854charge 0 multiplicity 1
 O         0.482449         0.759595         0.229920
 C        -0.756233         1.039159         0.695766
 C        -1.239803         1.099831         2.163576
 C        -2.516001         1.340349         1.308566
 O        -3.826453         1.579660         1.743980
 C        -2.063735         0.157284         0.400217
 C        -2.594291         0.538144        -1.049094
 C        -2.321523         2.054174        -1.168820
 C        -1.740126         2.271304         0.283427
 H         1.142306         1.548452         0.458248
 H        -1.298985         0.138922         2.771886
 H        -0.808038         1.932437         2.722596
 H        -4.009290         2.472885         1.329764
 H        -1.996501        -0.906329         0.690611
 H        -2.074125        -0.030244        -1.840185
 H        -3.666668         0.221093        -1.287646
 H        -1.583302         2.356074        -1.928948
 H        -3.240136         2.734438        -1.299895
 H        -1.183680         3.265998         0.511522
