19
Iteration:  2849
 O         0.514377         0.677095         0.161490
 C        -0.792893         1.085215         0.697193
 C        -1.222410         0.957520         2.187598
 C        -2.517560         1.294971         1.297987
 O        -3.802928         1.680599         1.777885
 C        -2.102165         0.185660         0.251310
 C        -2.497593         0.680098        -1.174619
 C        -2.320956         2.191373        -1.016187
 C        -1.728583         2.319637         0.442146
 H         0.253932         0.271697        -0.680169
 H        -1.371885        -0.013854         2.718470
 H        -0.909856         1.777371         2.870465
 H        -4.242069         0.853798         2.005315
 H        -2.240009        -0.878374         0.448779
 H        -1.782073         0.171829        -1.811408
 H        -3.473846         0.185707        -1.512296
 H        -1.601047         2.448049        -1.803054
 H        -3.237961         2.733074        -1.131030
 H        -1.584296         3.338969         0.953760
