19
Iteration:  3754
 O         0.507281         0.792120         0.213318
 C        -0.782008         0.985659         0.666719
 C        -1.344699         0.887466         2.121932
 C        -2.486000         1.389312         1.254961
 O        -3.860599         1.473551         1.979458
 C        -2.208027         0.247481         0.184170
 C        -2.571339         0.809894        -1.160648
 C        -2.230053         2.243321        -1.071778
 C        -1.539032         2.231664         0.343546
 H         1.017916        -0.021448         0.638065
 H        -1.491929        -0.129464         2.352066
 H        -1.002188         1.604713         2.914621
 H        -4.514169         1.570285         1.207804
 H        -2.164380        -0.791541         0.516975
 H        -2.080839         0.164267        -1.882147
 H        -3.601776         0.445926        -1.356633
 H        -1.599640         2.639735        -1.903376
 H        -3.078385         2.853348        -1.029845
 H        -0.895917         3.056010         0.708216
