19
Iteration:  3694charge 0 multiplicity 1
 O         0.446118         0.655924         0.038943
 C        -0.784245         0.999952         0.639873
 C        -1.254621         0.920401         2.200571
 C        -2.477977         1.301478         1.294653
 O        -3.906243         1.586341         1.806471
 C        -2.141481         0.270486         0.212925
 C        -2.489036         0.714014        -1.121791
 C        -2.221278         2.286694        -0.977990
 C        -1.654077         2.280356         0.502645
 H         0.950674         0.397342         0.871970
 H        -1.141472        -0.090275         2.769341
 H        -0.860791         1.700003         2.874416
 H        -4.528853         1.074860         1.143518
 H        -2.149649        -0.820743         0.371394
 H        -1.895225         0.280760        -1.964619
 H        -3.581448         0.675170        -1.306717
 H        -1.511915         2.701899        -1.688393
 H        -3.245520         2.781586        -1.046305
 H        -1.401438         3.317964         0.745735
