19
Iteration:  1846
 O         0.574352         0.784380         0.210465
 C        -0.794355         0.922707         0.683591
 C        -1.193419         1.046301         2.195254
 C        -2.499978         1.210924         1.281730
 O        -3.784899         1.686644         1.682616
 C        -2.041238         0.173804         0.232427
 C        -2.710249         0.720118        -1.139485
 C        -2.341755         2.236405        -0.989184
 C        -1.698541         2.176338         0.387906
 H         0.814992        -0.173232         0.414749
 H        -0.984736         0.071898         2.843838
 H        -0.815123         2.065432         2.644644
 H        -4.435166         0.847718         1.773203
 H        -2.239981        -0.891397         0.447619
 H        -2.486610         0.274800        -2.138376
 H        -3.840973         0.803485        -0.969973
 H        -1.647943         2.849790        -1.744576
 H        -3.285179         2.817404        -0.839502
 H        -1.346272         3.138837         0.757564
