19
Iteration:  1462charge 0 multiplicity 1
 O         0.432409         0.687657        -0.027426
 C        -0.825691         0.941631         0.623399
 C        -1.309896         1.038586         2.182686
 C        -2.569623         1.303028         1.381599
 O        -3.810408         1.677737         1.921397
 C        -2.151356         0.195892         0.282704
 C        -2.413107         0.727434        -1.203157
 C        -2.200420         2.167496        -1.030086
 C        -1.768649         2.226691         0.398649
 H         1.246018         1.033923         0.420547
 H        -1.228917         0.016788         2.630718
 H        -0.954330         1.708524         2.872566
 H        -4.176989         0.949381         2.560633
 H        -2.138901        -0.972561         0.512469
 H        -1.555942         0.403057        -1.802519
 H        -3.368215         0.373718        -1.633926
 H        -1.391322         2.605145        -1.658017
 H        -3.117700         2.754336        -1.247857
 H        -1.408742         3.248771         0.716389
