19
Iteration:  3635
 O         0.472490         0.647278         0.125257
 C        -0.764594         1.027924         0.630222
 C        -1.209898         0.892137         2.124088
 C        -2.612711         1.258575         1.327710
 O        -3.830293         1.636541         1.876235
 C        -2.103290         0.208613         0.172375
 C        -2.580328         0.726253        -1.171015
 C        -2.183790         2.270243        -0.970149
 C        -1.751158         2.260240         0.441377
 H         1.028453         0.947577         0.794676
 H        -1.089422        -0.060762         2.601905
 H        -0.903490         1.791096         2.758216
 H        -4.468200         1.374655         1.231311
 H        -2.109777        -0.859035         0.460328
 H        -1.961854         0.330610        -1.962403
 H        -3.625828         0.613562        -1.494704
 H        -1.169159         2.432484        -1.422680
 H        -2.807669         3.104085        -1.298475
 H        -1.701588         3.226567         0.963518
