19
Iteration:  4492charge 0 multiplicity 1
 O         0.474249         0.834384         0.230062
 C        -0.803003         0.999718         0.692445
 C        -1.285595         1.126818         2.171965
 C        -2.511438         1.334040         1.274710
 O        -3.787914         1.601200         1.633805
 C        -2.176944         0.154522         0.394395
 C        -2.548076         0.535860        -0.979623
 C        -2.246896         2.045625        -1.134069
 C        -1.655309         2.244078         0.309718
 H         0.354578         0.948695        -0.706175
 H        -1.028274         0.239265         2.768918
 H        -0.849111         1.925354         2.885845
 H        -3.808059         2.214745         2.422891
 H        -2.030825        -0.904226         0.722831
 H        -1.891383        -0.018760        -1.642324
 H        -3.625598         0.248690        -1.144556
 H        -1.654861         2.322784        -1.985726
 H        -3.287064         2.642793        -1.171260
 H        -1.432437         3.295325         0.581305
