19
Iteration:   328charge 0 multiplicity 1
 O         0.457728         0.698416         0.260972
 C        -0.863936         0.964770         0.598584
 C        -1.287750         0.975377         2.089566
 C        -2.533975         1.284399         1.289360
 O        -3.790892         1.500201         1.894537
 C        -2.084190         0.215097         0.206351
 C        -2.550394         0.713175        -1.182435
 C        -2.191836         2.265499        -1.011105
 C        -1.704371         2.270578         0.405228
 H         0.541607         0.971766        -0.682021
 H        -1.297086         0.010568         2.554044
 H        -1.004864         1.726905         2.844675
 H        -3.659625         2.363036         2.375761
 H        -2.276979        -0.781119         0.435653
 H        -1.968402         0.315807        -2.010236
 H        -3.602139         0.553601        -1.415853
 H        -1.374475         2.574883        -1.725197
 H        -3.128657         2.863080        -1.115346
 H        -1.301708         3.119631         0.820830
