19
Iteration:  1424charge 0 multiplicity 1
 O         0.329656         0.703190         0.037252
 C        -0.904056         1.021493         0.661300
 C        -1.226310         0.992352         2.106992
 C        -2.481622         1.353460         1.337325
 O        -3.807317         1.612891         1.805860
 C        -2.091299         0.208237         0.296524
 C        -2.468954         0.703109        -1.131189
 C        -2.224808         2.181348        -1.004322
 C        -1.687440         2.240965         0.413867
 H         0.915564         0.795637         0.744316
 H        -1.195422        -0.060314         2.517209
 H        -0.875689         1.807446         2.913037
 H        -4.026623         0.745140         2.395714
 H        -2.055622        -0.808709         0.499373
 H        -1.708618         0.167267        -1.814218
 H        -3.512021         0.548098        -1.475450
 H        -1.452683         2.458173        -1.746420
 H        -3.104418         2.845510        -1.152662
 H        -1.335626         3.211525         0.764726
