19
Iteration:  3652charge 0 multiplicity 1
 O         0.443671         0.761544         0.048444
 C        -0.888886         0.938502         0.676276
 C        -1.235857         0.896240         2.168159
 C        -2.508178         1.278199         1.352350
 O        -3.847762         1.623661         1.781657
 C        -2.143988         0.222780         0.269762
 C        -2.531253         0.763423        -1.188345
 C        -2.153223         2.222995        -0.971553
 C        -1.654409         2.252110         0.483417
 H         1.199447         0.825439         0.596325
 H        -1.376085        -0.135982         2.630505
 H        -0.876192         1.710614         2.792668
 H        -4.498177         1.272248         1.152123
 H        -2.338985        -0.858870         0.373375
 H        -1.892857         0.154005        -1.891251
 H        -3.625059         0.665400        -1.254554
 H        -1.490602         2.627243        -1.742141
 H        -3.105907         2.767574        -1.093573
 H        -1.141530         3.094823         0.983050
