19
Iteration:  1688
 O         0.572646         0.842744         0.202984
 C        -0.854997         0.921551         0.566581
 C        -1.209911         1.081352         2.220237
 C        -2.474752         1.197042         1.386015
 O        -3.827683         1.684483         1.634336
 C        -2.081558         0.113785         0.228959
 C        -2.743348         0.755707        -1.054052
 C        -2.280294         2.188245        -0.969959
 C        -1.647863         2.174869         0.360314
 H         0.823428        -0.020747         0.505701
 H        -1.034922         0.084534         2.803801
 H        -0.715501         1.945656         2.653438
 H        -4.210385         0.925076         1.914964
 H        -2.074140        -0.892276         0.157549
 H        -2.381597         0.392267        -2.026356
 H        -3.815815         0.695509        -1.110312
 H        -1.654317         2.459711        -1.750786
 H        -3.135766         2.860286        -0.864676
 H        -1.204585         3.106594         0.767879
