19
Iteration:  2610charge 0 multiplicity 1
 O         0.502992         0.812691         0.216081
 C        -0.848386         0.989119         0.693583
 C        -1.175437         0.843434         2.186721
 C        -2.550981         1.313169         1.350669
 O        -3.807168         1.775742         1.727561
 C        -2.025098         0.144575         0.206260
 C        -2.615549         0.672938        -1.103300
 C        -2.237502         2.197488        -1.030781
 C        -1.754186         2.236797         0.428128
 H         0.528543         0.591813        -0.741880
 H        -1.187087        -0.195739         2.497172
 H        -0.744613         1.506184         2.924405
 H        -4.269073         1.016885         2.184085
 H        -2.071159        -0.932603         0.336887
 H        -2.201037         0.262401        -2.084552
 H        -3.673165         0.484946        -1.232026
 H        -1.509678         2.332621        -1.847585
 H        -3.099285         2.711467        -1.377380
 H        -1.416876         3.224537         0.785608
