19
Iteration:  3183
 O         0.492866         0.654940         0.269995
 C        -0.843142         0.929315         0.644141
 C        -1.255493         1.031427         2.163326
 C        -2.492971         1.353780         1.300948
 O        -3.856989         1.419599         1.891170
 C        -2.141503         0.266125         0.195389
 C        -2.513266         0.732066        -1.248644
 C        -2.281318         2.289661        -1.067533
 C        -1.624815         2.235100         0.431677
 H         0.344373         0.897189        -0.626721
 H        -1.497959         0.103594         2.748396
 H        -0.744917         1.747495         2.824460
 H        -4.060423         2.412699         1.916791
 H        -2.329275        -0.777916         0.451747
 H        -1.859713         0.338334        -2.075437
 H        -3.494506         0.455607        -1.608747
 H        -1.486632         2.719153        -1.719235
 H        -3.117469         2.901350        -0.962476
 H        -1.096352         3.119682         0.760651
