19
Iteration:  2748
 O         0.515045         0.834746         0.204950
 C        -0.788088         1.030865         0.665518
 C        -1.246930         0.856090         2.160718
 C        -2.495496         1.265733         1.382440
 O        -3.773399         1.732992         1.710704
 C        -2.151428         0.128893         0.221012
 C        -2.681891         0.666587        -1.068770
 C        -2.182506         2.173526        -1.067697
 C        -1.713153         2.264955         0.425440
 H         0.778433         1.204526        -0.636117
 H        -1.203373        -0.193152         2.590295
 H        -0.836540         1.577176         2.920750
 H        -4.430437         1.035140         2.180555
 H        -2.081236        -0.926787         0.491782
 H        -2.313512         0.057651        -1.962723
 H        -3.779498         0.457904        -1.324034
 H        -1.300174         2.228117        -1.681786
 H        -3.012583         2.780065        -1.518826
 H        -1.568041         3.239911         0.979460
