19
Iteration:  4533charge 0 multiplicity 1
 O         0.585752         0.611547         0.441910
 C        -0.827183         1.041877         0.680198
 C        -1.176280         1.245788         2.077818
 C        -2.508018         1.345007         1.263369
 O        -3.820283         1.476597         1.752249
 C        -2.099054         0.243352         0.304702
 C        -2.564438         0.568285        -1.028978
 C        -2.370041         2.125243        -1.154630
 C        -1.783371         2.330798         0.185027
 H         0.800281         0.748832        -0.524333
 H        -1.133694         0.336618         2.708533
 H        -0.764418         2.131433         2.582334
 H        -3.765660         2.019450         2.536607
 H        -2.247694        -0.840195         0.474708
 H        -2.027606        -0.073200        -1.709531
 H        -3.646492         0.334864        -1.271090
 H        -1.656171         2.384360        -1.959445
 H        -3.363405         2.575079        -1.198786
 H        -1.499303         3.334760         0.640587
