19
Iteration:  3614
 O         0.402703         0.616118         0.227728
 C        -0.806519         0.956733         0.680156
 C        -1.360052         0.947311         2.118629
 C        -2.546741         1.300935         1.292192
 O        -3.689391         1.486961         1.950768
 C        -2.107187         0.254567         0.162428
 C        -2.531368         0.794876        -1.183373
 C        -2.173942         2.261822        -1.139209
 C        -1.726026         2.327992         0.425251
 H         1.030320         1.272739         0.708312
 H        -1.288523        -0.047910         2.512334
 H        -0.839133         1.691299         2.778947
 H        -4.449272         1.511730         1.223586
 H        -2.136139        -0.779817         0.492604
 H        -2.225814         0.339691        -2.088708
 H        -3.623713         0.675605        -1.194790
 H        -1.433822         2.624132        -1.873923
 H        -3.104002         2.838447        -1.226453
 H        -1.318311         3.257680         0.855904
