19
Iteration:  1543
 O         0.427862         0.703336         0.202159
 C        -0.789505         0.945230         0.669471
 C        -1.198712         0.973936         2.234151
 C        -2.432239         1.285830         1.316011
 O        -3.746955         1.604713         1.591435
 C        -2.100591         0.170132         0.251424
 C        -2.717340         0.756397        -1.071094
 C        -2.322078         2.237424        -0.968815
 C        -1.631774         2.236068         0.382460
 H         1.058234         1.456610        -0.059388
 H        -1.249889         0.065789         2.754382
 H        -0.820545         1.953847         2.696046
 H        -4.181106         0.832280         2.046964
 H        -2.081731        -0.892032         0.481791
 H        -2.438561         0.282167        -2.038769
 H        -3.802288         0.524632        -1.033724
 H        -1.605455         2.475052        -1.750633
 H        -3.082440         2.976218        -1.031162
 H        -1.380432         3.306020         0.779963
