19
Iteration:   741charge 0 multiplicity 1
 O         0.573340         0.642782         0.305429
 C        -0.764952         0.944527         0.607520
 C        -1.233042         0.939131         2.101460
 C        -2.525248         1.276019         1.323962
 O        -3.854955         1.522377         1.813763
 C        -2.114606         0.239395         0.153678
 C        -2.679523         0.821062        -1.197643
 C        -2.261344         2.270119        -0.971873
 C        -1.712985         2.267460         0.390342
 H         0.731439         0.862290        -0.671718
 H        -1.204216        -0.022922         2.644359
 H        -0.609876         1.816221         2.602265
 H        -3.794321         1.803192         2.668546
 H        -2.221469        -0.795130         0.327325
 H        -2.252115         0.201638        -1.986931
 H        -3.728616         0.689595        -1.242258
 H        -1.480861         2.780436        -1.543458
 H        -3.161028         2.936353        -1.111302
 H        -1.272857         3.157515         0.830167
