19
Iteration:   213
 O         0.440681         0.838522         0.095752
 C        -0.928340         0.995908         0.611498
 C        -1.267827         0.905766         2.068856
 C        -2.522973         1.317380         1.342900
 O        -3.792831         1.408130         1.823056
 C        -2.265228         0.252013         0.326097
 C        -2.532570         0.744246        -1.138444
 C        -2.074139         2.246891        -1.013114
 C        -1.630364         2.249647         0.380972
 H         0.884781         0.249565         0.712912
 H        -1.245188        -0.102307         2.529261
 H        -0.884564         1.662061         2.737934
 H        -4.069187         2.217397         2.078792
 H        -2.420264        -0.846426         0.655970
 H        -2.046176         0.179440        -1.939253
 H        -3.626683         0.803633        -1.245754
 H        -1.216622         2.535675        -1.648765
 H        -2.977315         2.844863        -1.203416
 H        -1.110280         3.138217         0.978651
