19
Iteration:  3102charge 0 multiplicity 1
 O         0.548248         0.717608         0.290331
 C        -0.825614         0.924548         0.636579
 C        -1.259481         0.963587         2.147578
 C        -2.498907         1.274620         1.303733
 O        -3.781939         1.544579         1.705279
 C        -2.162633         0.207432         0.248574
 C        -2.680633         0.764722        -1.138709
 C        -2.241102         2.241128        -1.014198
 C        -1.642043         2.267261         0.409435
 H         0.572080         1.116087        -0.602007
 H        -1.144463         0.003492         2.603394
 H        -0.957880         1.842016         2.709596
 H        -4.105088         1.244996         2.567678
 H        -2.262145        -0.880150         0.435366
 H        -2.048924         0.332636        -1.895649
 H        -3.780214         0.670178        -1.367280
 H        -1.434902         2.482251        -1.676966
 H        -2.896438         3.106849        -1.245594
 H        -1.473697         3.334063         0.739170
