19
Iteration:  2263
 O         0.390570         0.790854         0.052587
 C        -0.874622         0.965468         0.621285
 C        -1.317092         0.975938         2.161702
 C        -2.550427         1.300105         1.395191
 O        -3.791575         1.579610         1.834698
 C        -2.136468         0.215329         0.338080
 C        -2.498133         0.679335        -1.119587
 C        -2.157707         2.274173        -1.071875
 C        -1.641388         2.300363         0.420382
 H         0.585692        -0.220763         0.225559
 H        -1.132782         0.023381         2.592826
 H        -0.818487         1.810382         2.649686
 H        -4.243676         0.632679         1.884127
 H        -2.244974        -0.836849         0.620736
 H        -1.873426         0.240312        -1.919390
 H        -3.546942         0.427998        -1.474317
 H        -1.223572         2.584562        -1.656205
 H        -2.880510         2.919527        -1.519703
 H        -1.100765         3.149161         0.770394
