19
Iteration:  3799charge 0 multiplicity 1
 O         0.389218         0.863391         0.058508
 C        -0.851498         1.002540         0.668083
 C        -1.293092         0.933667         2.245258
 C        -2.556150         1.156912         1.370911
 O        -3.790596         1.590020         1.751677
 C        -2.083430         0.172987         0.194946
 C        -2.524778         0.758394        -1.089205
 C        -2.109115         2.212797        -0.947869
 C        -1.669825         2.187342         0.458924
 H         0.527946        -0.167167        -0.198023
 H        -1.212195        -0.044620         2.674192
 H        -1.074541         1.867621         2.818020
 H        -4.045403         2.475806         1.298696
 H        -2.286372        -0.940617         0.292735
 H        -2.203336         0.321775        -2.033039
 H        -3.643578         0.646970        -1.330596
 H        -1.282896         2.450568        -1.637493
 H        -2.868501         2.955698        -1.183160
 H        -1.432627         3.256582         0.838860
