19
Iteration:  4210charge 0 multiplicity 1
 O         0.478979         0.861175         0.167335
 C        -0.816445         0.990491         0.705209
 C        -1.204725         1.063013         2.229703
 C        -2.506096         1.345118         1.351773
 O        -3.824045         1.588339         1.618054
 C        -2.098506         0.092908         0.284798
 C        -2.568920         0.605493        -1.103006
 C        -2.269977         2.127606        -1.044692
 C        -1.704941         2.232364         0.390535
 H         0.458057        -0.047971        -0.308428
 H        -1.144180         0.253152         2.927158
 H        -0.782179         1.975642         2.759388
 H        -3.997506         2.439815         2.140928
 H        -2.173598        -0.999008         0.525240
 H        -1.921932         0.071630        -1.859645
 H        -3.649423         0.497698        -1.087149
 H        -1.457348         2.478952        -1.780444
 H        -3.259258         2.596206        -1.054152
 H        -1.514198         3.232817         0.704318
