19
Iteration:  3868charge 0 multiplicity 1
 O         0.513328         0.670083         0.207392
 C        -0.771909         0.899386         0.688428
 C        -1.322028         1.006802         2.104136
 C        -2.523444         1.327191         1.281352
 O        -3.867225         1.561143         1.844489
 C        -2.035135         0.202540         0.149494
 C        -2.552340         0.796652        -1.223599
 C        -2.247305         2.243829        -0.989190
 C        -1.764821         2.273707         0.392704
 H         0.863554         0.036850         0.898019
 H        -1.194221        -0.004590         2.620597
 H        -0.798498         1.834876         2.564019
 H        -3.514858         1.600913         2.712913
 H        -2.297056        -0.860643         0.251007
 H        -2.159867         0.373372        -2.192813
 H        -3.673287         0.593632        -1.248703
 H        -1.501746         2.723774        -1.609001
 H        -3.139101         2.939489        -1.148875
 H        -1.321826         3.233463         0.787405
