19
Iteration:  1011
 O         0.364288         0.767570         0.184977
 C        -0.847504         1.018507         0.681492
 C        -1.257598         0.824772         2.126654
 C        -2.459366         1.297218         1.341766
 O        -3.723841         1.575335         1.789110
 C        -2.141277         0.328220         0.222111
 C        -2.594060         0.794496        -1.114580
 C        -2.232444         2.213023        -1.044845
 C        -1.644423         2.285930         0.390172
 H         0.939299        -0.056310         0.470976
 H        -1.222779        -0.239805         2.643727
 H        -0.671260         1.444002         2.810192
 H        -4.174604         0.689047         1.624504
 H        -2.209180        -0.817091         0.392825
 H        -2.157323         0.249105        -1.948382
 H        -3.727385         0.654786        -1.337976
 H        -1.573069         2.500771        -1.811372
 H        -3.036408         2.894215        -1.071230
 H        -1.294746         3.235995         0.719544
