19
Iteration:  3861charge 0 multiplicity 1
 O         0.435293         0.693851         0.222622
 C        -0.805984         0.957891         0.656539
 C        -1.245781         0.969015         2.117582
 C        -2.530889         1.305698         1.311492
 O        -3.834382         1.536717         1.809129
 C        -2.091177         0.193961         0.118867
 C        -2.550216         0.747962        -1.196979
 C        -2.235212         2.305557        -1.028276
 C        -1.716222         2.276749         0.403876
 H         0.889633        -0.034088         0.832312
 H        -1.177604         0.021147         2.657131
 H        -0.757932         1.748676         2.787018
 H        -3.830541         1.830146         2.785963
 H        -2.269265        -0.851057         0.366137
 H        -1.916960         0.354741        -2.010843
 H        -3.571669         0.530084        -1.088633
 H        -1.459942         2.632705        -1.789473
 H        -3.074389         2.985963        -1.136447
 H        -1.345419         3.183114         0.791918
