19
Iteration:  1265charge 0 multiplicity 1
 O         0.434779         0.761015         0.129126
 C        -0.829605         0.986888         0.667874
 C        -1.307019         0.980122         2.133510
 C        -2.550306         1.293889         1.339412
 O        -3.784641         1.608184         1.917060
 C        -2.151121         0.189144         0.210462
 C        -2.487234         0.721280        -1.216538
 C        -2.192963         2.263734        -1.055041
 C        -1.653139         2.256945         0.398595
 H         0.615851        -0.098522        -0.143674
 H        -1.313030        -0.010539         2.744668
 H        -0.942137         1.900743         2.784166
 H        -4.091210         0.758545         2.353973
 H        -2.131694        -0.916100         0.506824
 H        -2.022464         0.175734        -2.022962
 H        -3.572437         0.508114        -1.400857
 H        -1.573453         2.651702        -1.822458
 H        -3.085955         2.847684        -0.983645
 H        -1.227746         3.156042         0.815827
