19
Iteration:   489charge 0 multiplicity 1
 O         0.501200         0.750762         0.136101
 C        -0.894536         0.945312         0.593051
 C        -1.239185         0.939544         2.139991
 C        -2.597058         1.297343         1.423579
 O        -3.858452         1.556211         1.954004
 C        -2.068727         0.226742         0.133384
 C        -2.514137         0.736127        -1.199139
 C        -2.217236         2.229628        -1.138871
 C        -1.715905         2.264774         0.408918
 H         0.872235         0.083263         0.657728
 H        -1.208367        -0.007622         2.751500
 H        -0.751024         1.713756         2.784615
 H        -3.762102         2.257773         2.634607
 H        -2.212854        -0.827592         0.334850
 H        -1.915337         0.302296        -2.010724
 H        -3.557727         0.447964        -1.493933
 H        -1.455441         2.564188        -1.827503
 H        -3.098649         2.826942        -1.245161
 H        -1.239265         3.226146         0.947233
