19
Iteration:   155
 O         0.422369         0.699105         0.181586
 C        -0.813927         0.941191         0.674288
 C        -1.217231         0.872722         2.109220
 C        -2.524828         1.329054         1.279591
 O        -3.800490         1.466407         1.732253
 C        -2.216758         0.278574         0.253931
 C        -2.560936         0.763471        -1.154716
 C        -2.252052         2.262885        -0.995091
 C        -1.608913         2.295407         0.414740
 H         0.973300         1.526666         0.314947
 H        -1.265581        -0.100811         2.565554
 H        -0.732111         1.621868         2.786985
 H        -3.807882         1.848722         2.714133
 H        -2.372722        -0.739243         0.547888
 H        -1.919699         0.271679        -1.910132
 H        -3.550845         0.463710        -1.482000
 H        -1.616688         2.601444        -1.746728
 H        -3.102581         2.918829        -1.036304
 H        -1.223753         3.182434         0.942738
