19
Iteration:  4895charge 0 multiplicity 1
 O         0.448017         0.783693         0.181262
 C        -0.866946         0.993455         0.732513
 C        -1.236238         1.197570         2.257462
 C        -2.495807         1.327787         1.259090
 O        -3.825899         1.609072         1.647841
 C        -2.118124         0.169898         0.383096
 C        -2.448375         0.510959        -1.026458
 C        -2.302432         2.108382        -1.082323
 C        -1.696209         2.202523         0.261617
 H         0.318501         1.147974        -0.716338
 H        -1.214723         0.230709         2.637105
 H        -0.859889         2.012450         2.876605
 H        -3.793868         1.911735         2.570092
 H        -2.159519        -0.880147         0.721323
 H        -1.756442        -0.020530        -1.641431
 H        -3.526733         0.295999        -1.281064
 H        -1.568558         2.399890        -1.780880
 H        -3.132543         2.541661        -1.434189
 H        -1.292198         3.121518         0.671538
