19
Iteration:   827charge 0 multiplicity 1
 O         0.322539         0.816428         0.044136
 C        -0.887050         0.975097         0.665317
 C        -1.251150         0.919851         2.137280
 C        -2.478673         1.288898         1.266819
 O        -3.735792         1.585104         1.816212
 C        -2.192185         0.215178         0.241305
 C        -2.516067         0.742429        -1.115149
 C        -2.199144         2.251510        -0.948437
 C        -1.569632         2.241756         0.478153
 H         0.770968         0.110701         0.424043
 H        -1.210037        -0.040253         2.563966
 H        -0.823005         1.665532         2.781384
 H        -4.314352         0.755628         1.591746
 H        -2.428371        -0.815185         0.560777
 H        -1.829198         0.311398        -1.837371
 H        -3.489283         0.484552        -1.553661
 H        -1.525557         2.690233        -1.703583
 H        -3.131943         2.938706        -1.031284
 H        -1.280592         3.041476         1.042285
