19
Iteration:  2733charge 0 multiplicity 1
 O         0.541046         0.850057         0.193203
 C        -0.829802         0.931460         0.664441
 C        -1.271583         0.912039         2.126337
 C        -2.525508         1.259491         1.224254
 O        -3.796165         1.692636         1.762550
 C        -2.150484         0.224990         0.320592
 C        -2.604667         0.663052        -1.065912
 C        -2.173424         2.156941        -1.030565
 C        -1.707831         2.198396         0.409297
 H         0.317372         1.246985        -0.637771
 H        -1.257247        -0.070398         2.612397
 H        -0.865063         1.695112         2.793800
 H        -4.206944         0.984828         2.109944
 H        -2.355233        -0.834002         0.539647
 H        -2.109471         0.099602        -2.007959
 H        -3.665991         0.738293        -1.026829
 H        -1.420492         2.430200        -1.800577
 H        -2.940052         2.948742        -1.038753
 H        -1.249814         3.098711         0.695702
