19
Iteration:  2568charge 0 multiplicity 1
 O         0.523692         0.744099         0.196500
 C        -0.860215         0.918829         0.568220
 C        -1.282176         1.071092         2.112620
 C        -2.507346         1.336493         1.302432
 O        -3.859343         1.532583         1.806873
 C        -2.190087         0.174799         0.256828
 C        -2.652908         0.730983        -1.049628
 C        -2.146931         2.167674        -0.984634
 C        -1.617865         2.314889         0.385569
 H         0.804311         1.189299        -0.699882
 H        -1.391032         0.183287         2.800030
 H        -0.723675         1.841927         2.699766
 H        -4.222597         0.642363         2.261072
 H        -2.253086        -0.856857         0.527914
 H        -2.107568         0.153227        -1.979216
 H        -3.683544         0.594203        -1.291287
 H        -1.210340         2.296048        -1.586001
 H        -2.712687         3.012421        -1.309688
 H        -1.043156         3.114891         0.740634
