19
Iteration:  4073charge 0 multiplicity 1
 O         0.483522         0.714166         0.199497
 C        -0.850475         0.952422         0.665999
 C        -1.149895         0.914287         2.213754
 C        -2.536605         1.376760         1.288049
 O        -3.821338         1.619410         1.646706
 C        -2.059568         0.207812         0.309261
 C        -2.538379         0.609377        -1.088023
 C        -2.284771         2.229883        -0.988062
 C        -1.715933         2.345956         0.477847
 H         0.389835         0.854446        -0.805508
 H        -1.292653        -0.119985         2.567423
 H        -0.672297         1.518460         2.970240
 H        -4.411779         1.418129         0.908621
 H        -2.314400        -0.836286         0.690282
 H        -1.959326         0.171818        -1.854233
 H        -3.623003         0.438598        -1.087785
 H        -1.538124         2.582977        -1.698936
 H        -3.213001         2.800675        -1.220211
 H        -1.326883         3.371443         0.763388
