19
Iteration:   888charge 0 multiplicity 1
 O         0.410599         0.820089         0.245902
 C        -0.871778         0.943226         0.618374
 C        -1.222912         0.945569         2.142202
 C        -2.437839         1.243417         1.298935
 O        -3.662428         1.596668         1.719363
 C        -2.093330         0.170561         0.104660
 C        -2.713322         0.834850        -1.128262
 C        -2.253511         2.242601        -0.967256
 C        -1.682825         2.212872         0.445302
 H         0.552407        -0.042966         0.653315
 H        -0.923646        -0.056315         2.720760
 H        -0.766139         1.817818         2.668090
 H        -4.026252         0.768832         2.288103
 H        -2.319537        -0.904216         0.327325
 H        -2.429649         0.430236        -2.124304
 H        -3.833922         0.873150        -1.058818
 H        -1.398905         2.427066        -1.621723
 H        -3.070307         2.861373        -1.142370
 H        -1.443623         3.222123         0.980793
