19
Iteration:  3636
 O         0.472544         0.652823         0.115986
 C        -0.754832         1.022564         0.631642
 C        -1.222576         0.897245         2.120866
 C        -2.614871         1.258160         1.339137
 O        -3.835798         1.639440         1.868557
 C        -2.113004         0.210327         0.176318
 C        -2.575049         0.730679        -1.170424
 C        -2.178877         2.261306        -0.973745
 C        -1.747674         2.249634         0.453838
 H         1.011812         0.946702         0.807756
 H        -1.039166        -0.073857         2.600587
 H        -0.863390         1.776127         2.752178
 H        -4.425165         1.369503         1.235227
 H        -2.083246        -0.835306         0.497303
 H        -1.995497         0.363271        -1.992308
 H        -3.604541         0.592240        -1.513305
 H        -1.186252         2.431011        -1.432712
 H        -2.831126         3.121631        -1.271938
 H        -1.692146         3.243171         0.943604
