19
Iteration:   529
 O         0.410194         0.926032         0.089174
 C        -0.854856         0.897503         0.610877
 C        -1.312505         0.885938         2.148455
 C        -2.415663         1.351305         1.313787
 O        -3.832884         1.488515         1.716677
 C        -2.142526         0.207564         0.285335
 C        -2.607747         0.703418        -0.998147
 C        -2.115902         2.208498        -0.962035
 C        -1.594390         2.271217         0.451848
 H         0.528691         0.112919        -0.540216
 H        -1.275466        -0.098452         2.687641
 H        -0.784471         1.648605         2.728174
 H        -4.144670         2.393577         1.905189
 H        -2.481205        -0.860083         0.635569
 H        -2.208405         0.092259        -1.835928
 H        -3.698398         0.566355        -1.167475
 H        -1.421551         2.371504        -1.798126
 H        -2.937008         2.878631        -1.329848
 H        -1.288610         3.133029         0.930854
