19
Iteration:   120charge 0 multiplicity 1
 O         0.496515         0.624465         0.195841
 C        -0.783074         0.969537         0.661476
 C        -1.262835         0.927646         2.120155
 C        -2.534672         1.300879         1.228967
 O        -3.837198         1.463280         1.688020
 C        -2.122026         0.236665         0.242008
 C        -2.525753         0.766577        -1.112238
 C        -2.309206         2.310306        -0.897670
 C        -1.612459         2.305313         0.454550
 H         0.600360         1.053804        -0.749738
 H        -1.402916        -0.037869         2.663862
 H        -0.811490         1.682805         2.800650
 H        -3.850700         2.304296         2.325088
 H        -2.199694        -0.801968         0.454969
 H        -1.919410         0.395940        -1.959747
 H        -3.609906         0.638717        -1.234728
 H        -1.918489         2.737983        -1.765715
 H        -3.265921         2.763768        -0.673791
 H        -1.366352         3.214984         0.938329
