19
Iteration:  4011
 O         0.509548         0.737183         0.347749
 C        -0.830548         1.030286         0.669243
 C        -1.312828         0.952946         2.108291
 C        -2.565128         1.331690         1.308050
 O        -3.781028         1.449481         1.908408
 C        -2.142404         0.249808         0.198893
 C        -2.565138         0.727922        -1.212661
 C        -2.215977         2.187162        -1.114566
 C        -1.662668         2.334768         0.311484
 H         0.614916        -0.100587        -0.249085
 H        -1.304361        -0.089863         2.520086
 H        -0.934152         1.704121         2.819379
 H        -3.811418         2.259532         2.471446
 H        -2.322421        -0.805158         0.434617
 H        -2.154126         0.279767        -2.147558
 H        -3.647160         0.468721        -1.381224
 H        -1.432257         2.501340        -1.827125
 H        -2.993842         2.946264        -1.297029
 H        -1.134342         3.246030         0.652317
