19
Iteration:   579
 O         0.484920         0.687231         0.227964
 C        -0.890687         0.978736         0.593131
 C        -1.243511         1.018666         2.110715
 C        -2.467022         1.295132         1.285328
 O        -3.742400         1.452419         1.703726
 C        -2.023477         0.194670         0.247330
 C        -2.649084         0.753266        -1.092282
 C        -2.278799         2.328245        -0.927289
 C        -1.750719         2.294283         0.404050
 H         0.412032        -0.152065        -0.130341
 H        -1.395167         0.072350         2.571618
 H        -0.839607         1.786730         2.777654
 H        -3.767670         2.103954         2.394046
 H        -2.003739        -0.792117         0.522818
 H        -2.249947         0.334618        -2.040722
 H        -3.716791         0.592831        -1.111015
 H        -1.432190         2.468303        -1.616126
 H        -3.096516         2.962991        -1.258078
 H        -1.149233         3.201936         0.838900
