19
Iteration:   443
 O         0.451919         0.615305         0.156403
 C        -0.803080         0.964550         0.656151
 C        -1.214931         0.938886         2.157557
 C        -2.506567         1.348105         1.369139
 O        -3.849849         1.504304         1.752010
 C        -2.110154         0.280024         0.223559
 C        -2.522766         0.749059        -1.168659
 C        -2.388128         2.297047        -1.034371
 C        -1.637364         2.283888         0.350235
 H         1.266266         0.720272         0.710212
 H        -1.222992        -0.016936         2.797863
 H        -0.814889         1.737094         2.830103
 H        -3.861643         1.832745         2.743333
 H        -2.082481        -0.844938         0.487080
 H        -1.889127         0.255540        -1.951472
 H        -3.598433         0.495101        -1.425792
 H        -1.716385         2.719097        -1.735276
 H        -3.370381         2.773188        -1.053714
 H        -1.152950         3.243608         0.718728
