19
Iteration:  1515
 O         0.612064         0.692766         0.188813
 C        -0.748032         0.887727         0.607814
 C        -1.220763         1.012096         2.112823
 C        -2.515929         1.276017         1.285864
 O        -3.881105         1.666604         1.692515
 C        -2.138860         0.174123         0.269165
 C        -2.710624         0.715879        -1.065919
 C        -2.331296         2.285727        -0.935398
 C        -1.620247         2.212748         0.397979
 H         1.153468         1.498684         0.024812
 H        -1.129968         0.069758         2.814930
 H        -0.927951         1.856133         2.685429
 H        -4.327427         0.794590         2.084225
 H        -2.107111        -0.924011         0.467649
 H        -2.112909         0.306112        -1.898177
 H        -3.777723         0.385607        -1.064941
 H        -1.592389         2.473479        -1.772438
 H        -3.121399         3.092533        -1.053284
 H        -1.321000         3.098064         0.848151
