19
Iteration:  2227
 O         0.498640         0.906099         0.053969
 C        -0.810757         0.957838         0.673440
 C        -1.281759         0.955277         2.137962
 C        -2.543993         1.262781         1.301388
 O        -3.763886         1.629890         1.833610
 C        -2.221598         0.152313         0.282640
 C        -2.653436         0.692732        -1.171429
 C        -2.070950         2.202248        -1.019662
 C        -1.732455         2.245949         0.453620
 H         0.999569         0.083062         0.409247
 H        -1.135820         0.033561         2.784477
 H        -0.912435         1.753279         2.788651
 H        -4.522693         0.952031         1.730704
 H        -2.450218        -0.864563         0.643443
 H        -2.144576         0.093053        -1.932917
 H        -3.698422         0.667349        -1.263969
 H        -1.110707         2.112088        -1.507418
 H        -2.745147         3.022894        -1.354432
 H        -1.256301         3.128816         0.910564
