19
Iteration:  4956charge 0 multiplicity 1
 O         0.484233         0.810198         0.341757
 C        -0.824080         1.076846         0.653958
 C        -1.244062         1.150057         2.188663
 C        -2.545361         1.363394         1.259593
 O        -3.716474         1.626107         1.814010
 C        -2.112876         0.224253         0.263897
 C        -2.585945         0.507879        -1.114637
 C        -2.301388         2.034387        -1.173568
 C        -1.695963         2.289227         0.307326
 H         0.468736         0.028276        -0.089993
 H        -1.223794         0.206820         2.819725
 H        -0.810343         1.963983         2.857233
 H        -4.267192         0.837461         1.775635
 H        -1.857981        -0.721081         0.709884
 H        -2.041079        -0.238597        -1.805623
 H        -3.626327         0.249990        -1.335515
 H        -1.433178         2.260920        -1.901820
 H        -3.339857         2.554319        -1.382357
 H        -1.432454         3.313769         0.553989
