19
Iteration:  4774charge 0 multiplicity 1
 O         0.412632         0.840995         0.148635
 C        -0.837261         1.031882         0.694447
 C        -1.285939         1.162911         2.216537
 C        -2.481230         1.398166         1.266721
 O        -3.841032         1.653181         1.757373
 C        -2.080466         0.197839         0.387950
 C        -2.521377         0.456758        -1.092737
 C        -2.228265         2.042913        -1.132340
 C        -1.683985         2.259743         0.332151
 H         0.619921        -0.045379        -0.342960
 H        -1.132607         0.289399         2.765087
 H        -0.791975         2.032555         2.712209
 H        -4.166033         0.822537         2.218369
 H        -2.131284        -0.869278         0.695707
 H        -1.694868         0.119286        -1.722707
 H        -3.591254         0.116239        -1.312601
 H        -1.265726         2.120030        -1.723128
 H        -2.972743         2.773652        -1.307938
 H        -1.600973         3.320142         0.757777
