19
Iteration:   394
 O         0.403584         0.744853         0.097548
 C        -0.807475         0.890237         0.720525
 C        -1.239555         0.950150         2.270056
 C        -2.459539         1.332893         1.347663
 O        -3.810433         1.448139         1.674117
 C        -2.138567         0.193750         0.275453
 C        -2.658977         0.794712        -1.132076
 C        -2.199846         2.251011        -1.025485
 C        -1.602658         2.251586         0.396029
 H         0.849002         1.567565        -0.169009
 H        -1.299389        -0.034489         2.634136
 H        -0.798474         1.510452         3.091497
 H        -3.933818         2.352574         1.854874
 H        -2.346421        -0.775595         0.618215
 H        -2.220809         0.285144        -1.983808
 H        -3.681128         0.529950        -1.224002
 H        -1.527578         2.523641        -1.930067
 H        -3.039760         2.985954        -0.878752
 H        -1.213139         3.154889         0.721050
