19
Iteration:  4117
 O         0.502846         0.665869         0.192432
 C        -0.802948         0.949770         0.693297
 C        -1.293589         1.071843         2.162694
 C        -2.506973         1.326921         1.322708
 O        -3.890755         1.519937         1.784182
 C        -2.123750         0.179037         0.277904
 C        -2.525496         0.652967        -1.193981
 C        -2.219099         2.217525        -1.075393
 C        -1.710642         2.236717         0.388549
 H         0.800880         1.550653        -0.148186
 H        -1.113085         0.271612         2.908832
 H        -0.886258         2.006508         2.515217
 H        -3.677801         2.144560         2.475054
 H        -2.347789        -0.897304         0.473143
 H        -1.944197         0.289591        -2.004156
 H        -3.620099         0.616844        -1.304259
 H        -1.390089         2.500996        -1.715159
 H        -3.109171         2.850233        -1.240700
 H        -1.320336         3.232651         0.814540
