19
Iteration:  2732charge 0 multiplicity 1
 O         0.531837         0.850973         0.192585
 C        -0.823492         0.928922         0.665427
 C        -1.275353         0.919299         2.126000
 C        -2.520339         1.268976         1.221514
 O        -3.798867         1.687040         1.765713
 C        -2.151191         0.231693         0.316239
 C        -2.593641         0.660721        -1.070551
 C        -2.177194         2.156619        -1.024295
 C        -1.702590         2.186087         0.407028
 H         0.332145         1.234245        -0.631395
 H        -1.268466        -0.039712         2.621651
 H        -0.849165         1.688909         2.773185
 H        -4.243519         0.961342         2.138439
 H        -2.380367        -0.815365         0.560088
 H        -2.153335         0.132117        -2.014331
 H        -3.655257         0.732091        -1.044681
 H        -1.419001         2.421330        -1.814513
 H        -2.932738         2.935256        -1.003681
 H        -1.226501         3.091266         0.698804
