19
Iteration:  2922
 O         0.470113         0.701827         0.295466
 C        -0.848590         1.008107         0.636581
 C        -1.275124         0.990971         2.173439
 C        -2.512090         1.289808         1.291897
 O        -3.834898         1.609432         1.787688
 C        -1.961326         0.195208         0.204881
 C        -2.669896         0.688164        -1.068012
 C        -2.221624         2.192706        -1.074421
 C        -1.682983         2.341845         0.346137
 H         0.741571         0.787196        -0.682961
 H        -1.282411        -0.063439         2.366623
 H        -0.772702         1.701847         2.811799
 H        -3.941629         0.914177         2.356624
 H        -1.863062        -0.877345         0.354028
 H        -2.348912         0.286551        -2.072234
 H        -3.735182         0.616739        -0.964795
 H        -1.465062         2.254321        -1.842569
 H        -3.125669         2.851069        -1.291694
 H        -1.311410         3.245558         0.826187
