19
Iteration:  1937charge 0 multiplicity 1
 O         0.375287         0.881825         0.087189
 C        -0.842254         0.927770         0.707013
 C        -1.238467         0.953419         2.216244
 C        -2.564639         1.281147         1.291216
 O        -3.744143         1.705302         1.920919
 C        -2.224761         0.164380         0.202213
 C        -2.422884         0.674407        -1.236598
 C        -2.139925         2.174829        -1.091491
 C        -1.784648         2.232475         0.406945
 H         0.813797         0.090613         0.206493
 H        -1.345839        -0.085606         2.728873
 H        -0.624208         1.749817         2.846984
 H        -4.016648         1.004534         2.542788
 H        -2.451991        -0.911697         0.470038
 H        -1.720851         0.145143        -1.901248
 H        -3.470526         0.442514        -1.490167
 H        -1.235998         2.578939        -1.721475
 H        -3.049717         2.757512        -1.409041
 H        -1.390374         3.121485         0.957280
