19
Iteration:  3091
 O         0.497183         0.660704         0.317048
 C        -0.804561         0.989963         0.674172
 C        -1.204436         0.947185         2.157060
 C        -2.484778         1.279277         1.299166
 O        -3.811049         1.566083         1.732875
 C        -2.124612         0.253388         0.142968
 C        -2.631460         0.776041        -1.132497
 C        -2.210766         2.224160        -1.031304
 C        -1.784414         2.309746         0.397740
 H         0.772561         1.020651        -0.609093
 H        -1.236632         0.028111         2.717431
 H        -0.734795         1.718341         2.758302
 H        -3.792839         1.034178         2.474475
 H        -2.176915        -0.832994         0.337603
 H        -2.306773         0.251096        -2.019955
 H        -3.745107         0.584221        -1.125361
 H        -1.402323         2.351650        -1.703004
 H        -3.115368         2.823571        -1.268419
 H        -1.299962         3.209407         0.864628
