19
Iteration:  4810charge 0 multiplicity 1
 O         0.533737         0.791688         0.222061
 C        -0.804899         1.026810         0.659937
 C        -1.242393         1.169233         2.166072
 C        -2.575683         1.364861         1.298013
 O        -3.851493         1.595986         1.896273
 C        -2.067679         0.211967         0.348214
 C        -2.604181         0.551085        -1.076905
 C        -2.245696         2.085801        -1.201439
 C        -1.656428         2.259193         0.185000
 H         0.838288         0.137339         0.935365
 H        -1.086162         0.279004         2.839449
 H        -0.882550         2.057570         2.702956
 H        -4.421382         0.953159         1.391913
 H        -2.092473        -0.782984         0.822783
 H        -2.032028         0.024355        -1.829873
 H        -3.632732         0.197895        -1.332111
 H        -1.541937         2.123765        -2.029278
 H        -3.180462         2.750812        -1.319623
 H        -1.517750         3.213943         0.689286
