19
Iteration:   691charge 0 multiplicity 1
 O         0.409774         0.717403         0.030104
 C        -0.838509         0.913084         0.640230
 C        -1.195897         0.887447         2.179509
 C        -2.453248         1.417988         1.423093
 O        -3.825538         1.422660         1.708511
 C        -2.179345         0.229633         0.251016
 C        -2.628530         0.778452        -1.116796
 C        -2.151782         2.237608        -0.989754
 C        -1.607052         2.279667         0.449148
 H         0.988294         1.383362         0.524241
 H        -1.281207        -0.097109         2.671353
 H        -0.840368         1.536480         2.921280
 H        -4.378026         2.303358         1.654456
 H        -2.415698        -0.756951         0.733332
 H        -2.312979         0.158464        -1.998426
 H        -3.750674         0.710132        -1.212971
 H        -1.455100         2.659212        -1.772650
 H        -3.006510         2.927366        -1.123271
 H        -1.240383         3.168113         1.048682
