19
Iteration:  3427
 O         0.425591         0.708361         0.150169
 C        -0.866607         0.992589         0.616707
 C        -1.253270         0.960017         2.151047
 C        -2.542082         1.265696         1.353814
 O        -3.798881         1.480857         1.818532
 C        -2.235696         0.276052         0.249416
 C        -2.605947         0.764124        -1.059193
 C        -2.163296         2.252402        -1.048239
 C        -1.591891         2.292784         0.393218
 H         1.143802         1.086738         0.788430
 H        -0.969101         0.002051         2.598093
 H        -0.691938         1.847469         2.651555
 H        -4.452060         1.213284         1.022127
 H        -2.222065        -0.844804         0.351048
 H        -1.874433         0.217547        -1.738796
 H        -3.570075         0.375033        -1.528287
 H        -1.340762         2.449786        -1.806395
 H        -2.981257         2.999111        -1.083734
 H        -0.973016         3.153526         0.680814
