19
Iteration:  3705charge 0 multiplicity 1
 O         0.467668         0.612811         0.140956
 C        -0.843561         0.991552         0.667500
 C        -1.152001         0.949901         2.138839
 C        -2.591002         1.247175         1.313876
 O        -3.891352         1.597786         1.838027
 C        -2.060946         0.212129         0.230551
 C        -2.522155         0.790998        -1.210835
 C        -2.201429         2.310416        -0.967397
 C        -1.740306         2.320103         0.410602
 H         1.038889         0.233825         0.766071
 H        -0.949808        -0.122598         2.542519
 H        -0.690261         1.844182         2.553732
 H        -4.583698         1.178675         1.274704
 H        -2.096054        -0.843074         0.571305
 H        -1.970196         0.293622        -2.058724
 H        -3.527570         0.343598        -1.296370
 H        -1.492899         2.680030        -1.705156
 H        -3.032998         3.102296        -1.037552
 H        -1.582682         3.228081         1.038513
