19
Iteration:  2246charge 0 multiplicity 1
 O         0.344986         0.858357         0.063000
 C        -0.864282         0.968678         0.739954
 C        -1.129087         1.000851         2.209980
 C        -2.548275         1.288388         1.319852
 O        -3.874468         1.612452         1.897939
 C        -2.176620         0.217608         0.177177
 C        -2.539153         0.733383        -1.178110
 C        -2.040510         2.144229        -1.061910
 C        -1.633375         2.184034         0.390386
 H         0.922960        -0.043050         0.163614
 H        -1.230791         0.115862         2.893174
 H        -0.812286         1.858985         2.850778
 H        -4.545751         0.812592         1.785719
 H        -2.249773        -0.875023         0.360607
 H        -2.105174         0.110539        -1.970279
 H        -3.640089         0.764307        -1.297861
 H        -1.343111         2.431350        -1.820307
 H        -2.940738         2.829773        -1.063271
 H        -1.409234         3.200153         0.864171
