19
Iteration:  1733
 O         0.479126         0.810958         0.112955
 C        -0.786796         0.989832         0.657424
 C        -1.276029         0.976450         2.124617
 C        -2.511853         1.427562         1.403087
 O        -3.820641         1.574721         1.773723
 C        -2.126302         0.218091         0.313781
 C        -2.594562         0.649292        -1.100891
 C        -2.231663         2.189657        -1.055086
 C        -1.654744         2.277977         0.393039
 H         0.520014        -0.105678        -0.000344
 H        -1.383898        -0.157144         2.455394
 H        -0.812265         1.485513         2.925960
 H        -4.152473         0.813301         2.129745
 H        -2.192060        -0.786174         0.554727
 H        -2.026286         0.100398        -1.864745
 H        -3.622802         0.458266        -1.403606
 H        -1.381108         2.302626        -1.689382
 H        -3.015585         2.889420        -1.388370
 H        -1.284442         3.272067         0.573668
