19
Iteration:  3123charge 0 multiplicity 1
 O         0.539578         0.825039         0.203970
 C        -0.809928         0.907923         0.671287
 C        -1.254544         0.917074         2.172984
 C        -2.492852         1.289273         1.263996
 O        -3.917044         1.596551         1.669933
 C        -2.228908         0.197705         0.233342
 C        -2.587910         0.711490        -1.098825
 C        -2.164751         2.242599        -0.945820
 C        -1.589812         2.205751         0.400189
 H         0.544455         1.103042        -0.710189
 H        -1.392755        -0.041189         2.664167
 H        -0.806827         1.730507         2.742589
 H        -3.684237         1.451012         2.692940
 H        -2.376086        -0.865302         0.497997
 H        -2.125324         0.151703        -1.903652
 H        -3.711465         0.644581        -1.090567
 H        -1.713917         2.687484        -1.809501
 H        -3.172811         2.803526        -0.910618
 H        -0.975753         3.100174         0.785238
