19
Iteration:  3693charge 0 multiplicity 1
 O         0.442138         0.660854         0.033270
 C        -0.779525         0.998587         0.641721
 C        -1.261359         0.920965         2.196874
 C        -2.480023         1.304808         1.302250
 O        -3.900185         1.583692         1.801465
 C        -2.140351         0.272567         0.213663
 C        -2.490147         0.714627        -1.117258
 C        -2.224204         2.280444        -0.977844
 C        -1.648023         2.279036         0.500295
 H         0.964066         0.405122         0.879779
 H        -1.177775        -0.079041         2.781858
 H        -0.883845         1.675686         2.909486
 H        -4.508673         1.072827         1.143051
 H        -2.167747        -0.819623         0.368693
 H        -1.901904         0.271006        -1.945969
 H        -3.581364         0.692931        -1.345645
 H        -1.509084         2.696938        -1.677535
 H        -3.261450         2.765940        -1.047898
 H        -1.359890         3.328549         0.768977
