19
Iteration:  1329charge 0 multiplicity 1
 O         0.537240         0.690518         0.124606
 C        -0.826057         0.959816         0.642350
 C        -1.325112         0.877931         2.135536
 C        -2.524402         1.374766         1.299575
 O        -3.806884         1.630112         1.771469
 C        -2.051360         0.231631         0.249312
 C        -2.572174         0.641498        -1.081524
 C        -2.260882         2.241053        -0.982541
 C        -1.688240         2.352027         0.439237
 H         0.579426         1.246763        -0.683823
 H        -1.414538        -0.126822         2.634880
 H        -0.964951         1.565521         2.864807
 H        -4.095888         0.986546         2.378769
 H        -2.014598        -0.921279         0.528633
 H        -2.031021         0.317109        -1.914824
 H        -3.626281         0.318834        -1.115257
 H        -1.537513         2.534651        -1.757027
 H        -3.225857         2.716227        -1.227380
 H        -1.370746         3.265053         0.840561
