19
Iteration:   944charge 0 multiplicity 1
 O         0.315835         0.827048         0.069532
 C        -0.868610         0.909950         0.719783
 C        -1.264642         0.821541         2.201480
 C        -2.468967         1.311173         1.353932
 O        -3.728056         1.610538         1.735346
 C        -2.088528         0.244178         0.240660
 C        -2.485660         0.745764        -1.188625
 C        -2.251535         2.303926        -1.005967
 C        -1.683655         2.239728         0.444736
 H         0.493257        -0.074356        -0.001127
 H        -1.236451        -0.274127         2.681113
 H        -0.777532         1.576182         2.823605
 H        -3.938532         1.332802         2.637031
 H        -2.168858        -0.857867         0.545187
 H        -1.850820         0.271680        -1.962294
 H        -3.541957         0.479176        -1.508472
 H        -1.503569         2.717755        -1.650390
 H        -3.109873         2.867817        -1.215184
 H        -1.432558         3.228001         0.884178
