19
Iteration:   195
 O         0.434118         0.767311         0.038951
 C        -0.773762         0.946086         0.766923
 C        -1.255651         0.930185         2.220097
 C        -2.531597         1.267651         1.298734
 O        -3.889498         1.485654         1.902021
 C        -2.105882         0.265417         0.155017
 C        -2.622831         0.775330        -1.233995
 C        -2.147513         2.216770        -1.071467
 C        -1.710889         2.265183         0.469459
 H         1.175146         0.494922         0.630957
 H        -1.258668        -0.063578         2.755141
 H        -0.847635         1.724726         2.854818
 H        -3.690944         2.285975         2.258985
 H        -2.220860        -0.807978         0.238384
 H        -1.958472         0.283759        -1.952958
 H        -3.718402         0.606099        -1.383135
 H        -1.159879         2.320335        -1.725256
 H        -2.777966         3.048281        -1.539641
 H        -1.488866         3.228313         0.857362
