19
Iteration:  3474
 O         0.486881         0.580646         0.186245
 C        -0.767950         1.011190         0.603601
 C        -1.353176         1.021966         2.120944
 C        -2.547689         1.234446         1.283031
 O        -3.746804         1.492524         1.990738
 C        -2.050333         0.253058         0.183206
 C        -2.537011         0.767479        -1.170498
 C        -2.261470         2.294343        -1.075889
 C        -1.707259         2.324969         0.377901
 H         0.971428         0.333923         1.030929
 H        -1.438352         0.108002         2.777667
 H        -1.267294         1.936486         2.761448
 H        -4.446871         1.700650         1.367675
 H        -2.027515        -0.814087         0.384217
 H        -2.147907         0.485952        -2.173781
 H        -3.658935         0.577175        -1.383605
 H        -1.391137         2.399346        -1.683196
 H        -3.089111         3.047579        -1.325408
 H        -1.638691         3.330040         0.858376
