19
Iteration:  1847charge 0 multiplicity 1
 O         0.575384         0.778370         0.211171
 C        -0.798213         0.939032         0.685857
 C        -1.196237         1.041066         2.192484
 C        -2.495597         1.210130         1.278336
 O        -3.790540         1.683063         1.681035
 C        -2.044702         0.174361         0.230671
 C        -2.719409         0.715901        -1.138560
 C        -2.333978         2.229952        -0.980642
 C        -1.692322         2.182642         0.384610
 H         0.812807        -0.134146         0.392710
 H        -0.962303         0.082302         2.858582
 H        -0.817085         2.087019         2.633313
 H        -4.402310         0.870745         1.766296
 H        -2.217780        -0.922411         0.456131
 H        -2.508801         0.286404        -2.144869
 H        -3.854107         0.778951        -0.993481
 H        -1.639983         2.847041        -1.737351
 H        -3.262878         2.831991        -0.814439
 H        -1.330376         3.151770         0.779988
