19
Iteration:  2850charge 0 multiplicity 1
 O         0.511613         0.685321         0.160659
 C        -0.795928         1.078407         0.696239
 C        -1.217203         0.959176         2.200435
 C        -2.526734         1.305097         1.286489
 O        -3.801741         1.674182         1.780376
 C        -2.103804         0.184789         0.250743
 C        -2.497962         0.677521        -1.188272
 C        -2.319480         2.188749        -1.009464
 C        -1.715314         2.315296         0.448107
 H         0.272196         0.261592        -0.712982
 H        -1.370750        -0.022878         2.701961
 H        -0.902087         1.784210         2.869479
 H        -4.276233         0.919760         2.001562
 H        -2.249977        -0.884784         0.470463
 H        -1.786184         0.163868        -1.794427
 H        -3.482196         0.191113        -1.475470
 H        -1.601496         2.470398        -1.834975
 H        -3.238336         2.714116        -1.128434
 H        -1.597351         3.326961         0.949042
