19
Iteration:  3903
 O         0.426333         0.741154         0.279128
 C        -0.831138         1.009878         0.660442
 C        -1.199868         0.896486         2.117105
 C        -2.510211         1.287201         1.262930
 O        -3.750648         1.607839         1.802214
 C        -2.198370         0.235351         0.225386
 C        -2.590465         0.768140        -1.176910
 C        -2.282829         2.251546        -1.031126
 C        -1.610144         2.242530         0.334656
 H         0.964075         0.264812         0.920638
 H        -1.090119        -0.149166         2.556692
 H        -0.894277         1.636402         2.896926
 H        -4.206508         0.837155         2.050615
 H        -2.439088        -0.808927         0.392148
 H        -1.874191         0.285497        -1.929763
 H        -3.601282         0.628631        -1.570432
 H        -1.496921         2.598115        -1.731463
 H        -3.227801         2.829400        -0.997387
 H        -1.268365         3.182615         0.708110
