19
Iteration:  4076charge 0 multiplicity 1
 O         0.476569         0.710499         0.187826
 C        -0.846695         0.957597         0.696279
 C        -1.182512         0.907737         2.207893
 C        -2.533168         1.383950         1.288387
 O        -3.814271         1.598918         1.651644
 C        -2.062699         0.205942         0.306684
 C        -2.514699         0.625270        -1.078608
 C        -2.288241         2.221870        -0.974694
 C        -1.707194         2.349900         0.459835
 H         0.377548         0.929841        -0.824368
 H        -1.242183        -0.136425         2.559042
 H        -0.647695         1.544122         2.874407
 H        -4.411973         1.546090         0.819860
 H        -2.323166        -0.734662         0.813071
 H        -2.030933         0.113692        -1.907492
 H        -3.607392         0.449759        -1.076159
 H        -1.612173         2.598937        -1.737069
 H        -3.193908         2.756267        -1.274639
 H        -1.276526         3.328235         0.772341
