19
Iteration:     6
 O         0.412224         0.660296         0.113705
 C        -0.804722         0.978302         0.601516
 C        -1.284203         0.875048         2.127408
 C        -2.521544         1.285425         1.328852
 O        -3.859668         1.454525         1.747641
 C        -2.126494         0.254189         0.167233
 C        -2.560747         0.840333        -1.115990
 C        -2.167420         2.267447        -0.958967
 C        -1.683835         2.271268         0.474209
 H         1.147958         1.171728         0.506096
 H        -1.258201        -0.071628         2.710555
 H        -0.769667         1.603112         2.801115
 H        -3.761405         2.246507         2.323202
 H        -2.113904        -0.771827         0.611674
 H        -1.900595         0.372348        -1.869225
 H        -3.616829         0.751560        -1.421177
 H        -1.368749         2.601331        -1.696245
 H        -3.019418         2.976875        -1.018585
 H        -1.401687         3.177829         1.078887
