19
Iteration:  3828charge 0 multiplicity 1
 O         0.456384         0.828917         0.033333
 C        -0.799249         0.965910         0.710756
 C        -1.249438         0.878626         2.181261
 C        -2.537480         1.380012         1.313455
 O        -3.863626         1.473895         1.734168
 C        -2.224841         0.251141         0.248012
 C        -2.510425         0.721292        -1.083750
 C        -2.151145         2.225972        -0.953503
 C        -1.602046         2.246899         0.446758
 H         0.868986        -0.065203         0.030716
 H        -1.451523        -0.136012         2.524205
 H        -0.873783         1.592093         2.965877
 H        -4.337595         2.359478         1.914312
 H        -2.627419        -0.694700         0.584191
 H        -2.016432         0.191135        -1.934867
 H        -3.507318         0.480860        -1.366555
 H        -1.380133         2.469856        -1.722911
 H        -3.009104         2.889588        -1.039221
 H        -1.252170         3.204061         0.715475
