19
Iteration:  3697charge 0 multiplicity 1
 O         0.458471         0.640847         0.062971
 C        -0.802992         1.002177         0.638294
 C        -1.228965         0.914187         2.209456
 C        -2.486590         1.288594         1.281045
 O        -3.921753         1.589725         1.815212
 C        -2.135746         0.257895         0.216150
 C        -2.488707         0.722928        -1.146469
 C        -2.215653         2.301907        -0.973553
 C        -1.675447         2.288458         0.494219
 H         0.929211         0.369928         0.803870
 H        -1.059953        -0.059808         2.666390
 H        -0.795319         1.783224         2.744014
 H        -4.508365         1.144963         1.229634
 H        -2.104183        -0.816801         0.411537
 H        -1.905286         0.309609        -1.990093
 H        -3.572540         0.578584        -1.208547
 H        -1.517954         2.723311        -1.732011
 H        -3.136231         2.839790        -1.037686
 H        -1.509218         3.298421         0.741334
