19
Iteration:  1367charge 0 multiplicity 1
 O         0.455089         0.712658         0.310408
 C        -0.849966         0.925627         0.644937
 C        -1.145054         1.005017         2.111070
 C        -2.484453         1.166418         1.318675
 O        -3.744825         1.606036         1.646616
 C        -2.130477         0.143622         0.205687
 C        -2.767417         0.723234        -1.036040
 C        -2.306709         2.283241        -0.997885
 C        -1.572017         2.280543         0.355927
 H         0.804759         1.697071         0.223741
 H        -0.749151         0.123612         2.630457
 H        -0.684493         2.120103         2.571439
 H        -4.294503         0.911129         1.873117
 H        -2.163191        -0.876876         0.420562
 H        -2.337732         0.166173        -1.956928
 H        -3.877965         0.737628        -1.067882
 H        -1.738698         2.563051        -1.900225
 H        -3.088384         3.031440        -0.882235
 H        -1.159949         3.259555         0.856373
