19
Iteration:  2475charge 0 multiplicity 1
 O         0.449555         0.841154         0.228065
 C        -0.824576         0.878867         0.666001
 C        -1.249639         1.009364         2.112111
 C        -2.517531         1.254823         1.250532
 O        -3.688235         1.725533         1.681183
 C        -2.165708         0.144147         0.217918
 C        -2.516714         0.679100        -1.138488
 C        -2.346629         2.241672        -0.898237
 C        -1.675497         2.201070         0.473854
 H         0.585722         0.191070        -0.406917
 H        -1.214158         0.065751         2.588331
 H        -0.821983         1.732262         2.770923
 H        -4.104077         1.040479         2.268244
 H        -2.432396        -0.915918         0.480396
 H        -1.788091         0.288337        -1.877794
 H        -3.550040         0.336088        -1.550262
 H        -1.859006         2.620441        -1.777066
 H        -3.330052         2.796889        -0.953475
 H        -1.106631         3.054986         1.015393
