19
Iteration:  2580charge 0 multiplicity 1
 O         0.483416         0.755123         0.194476
 C        -0.818706         1.030716         0.635503
 C        -1.279707         0.956576         2.133664
 C        -2.526262         1.339688         1.348610
 O        -3.779489         1.582294         1.753559
 C        -2.141426         0.226692         0.275168
 C        -2.676805         0.710602        -1.063450
 C        -2.108948         2.169718        -1.059653
 C        -1.677718         2.243241         0.423703
 H         0.465678         1.089927        -0.684029
 H        -1.210858        -0.132449         2.435855
 H        -0.985890         1.759935         2.864069
 H        -4.012536         0.808882         2.138570
 H        -2.291371        -0.806136         0.545047
 H        -2.141818         0.131456        -1.969680
 H        -3.754997         0.660471        -1.110181
 H        -1.269362         2.194755        -1.790972
 H        -2.936177         2.785327        -1.410206
 H        -1.367430         3.161710         0.806189
