19
Iteration:  1908charge 0 multiplicity 1
 O         0.409149         0.847109         0.062655
 C        -0.839498         1.013733         0.643243
 C        -1.277172         0.998794         2.173820
 C        -2.571551         1.253336         1.316077
 O        -3.827717         1.633220         1.847058
 C        -2.131085         0.220997         0.218581
 C        -2.563297         0.697562        -1.146674
 C        -2.110270         2.145628        -1.033800
 C        -1.668923         2.240055         0.425928
 H         0.784235        -0.075593         0.248385
 H        -1.172123         0.083401         2.662606
 H        -0.881132         1.775736         2.711610
 H        -4.186699         0.850007         2.464394
 H        -2.187115        -0.817225         0.508391
 H        -1.925694         0.192333        -1.870803
 H        -3.606368         0.494511        -1.211308
 H        -1.229260         2.237453        -1.544490
 H        -2.823982         2.896155        -1.335854
 H        -1.139824         3.025154         0.948360
