19
Iteration:  4809
 O         0.530013         0.794889         0.220978
 C        -0.803349         1.027306         0.658042
 C        -1.244180         1.168089         2.173761
 C        -2.566910         1.366938         1.294956
 O        -3.855706         1.595007         1.897146
 C        -2.075143         0.218781         0.351087
 C        -2.592853         0.549239        -1.071944
 C        -2.248366         2.082451        -1.203948
 C        -1.654904         2.257627         0.181997
 H         0.852637         0.089569         0.938100
 H        -1.076907         0.275873         2.788012
 H        -0.871135         2.061004         2.700860
 H        -4.425550         0.933091         1.413662
 H        -2.124149        -0.800442         0.790138
 H        -2.036807         0.008371        -1.821930
 H        -3.647022         0.197907        -1.316467
 H        -1.565655         2.176329        -2.037702
 H        -3.132565         2.743798        -1.346446
 H        -1.530148         3.216428         0.705695
