19
Iteration:   903
 O         0.574944         0.836917         0.166418
 C        -0.785269         0.886433         0.653406
 C        -1.205763         0.903267         2.156456
 C        -2.516350         1.240915         1.329400
 O        -3.833131         1.610838         1.754559
 C        -2.167165         0.197383         0.185478
 C        -2.702886         0.797510        -1.133093
 C        -2.256183         2.302375        -1.011308
 C        -1.657211         2.219787         0.415198
 H         1.075521        -0.064199         0.272908
 H        -1.351176        -0.003266         2.657315
 H        -0.806260         1.696721         2.742798
 H        -4.076938         1.055956         2.482930
 H        -2.289184        -0.924293         0.312404
 H        -2.269561         0.302743        -2.019899
 H        -3.849294         0.627629        -1.124403
 H        -1.519888         2.628065        -1.767758
 H        -3.080319         3.075897        -0.967136
 H        -1.209118         3.051073         0.832880
