19
Iteration:   748
 O         0.540654         0.685566         0.305169
 C        -0.809434         0.911149         0.666800
 C        -1.195358         0.917769         2.102626
 C        -2.499687         1.297220         1.307517
 O        -3.793531         1.524854         1.790453
 C        -2.159637         0.220327         0.136250
 C        -2.667394         0.789356        -1.190796
 C        -2.302237         2.297197        -0.994885
 C        -1.670365         2.305705         0.419403
 H         0.613660         0.687973        -0.621346
 H        -1.165873        -0.035182         2.621376
 H        -0.859658         1.752243         2.629308
 H        -3.816384         1.636354         2.760899
 H        -2.343560        -0.890223         0.422862
 H        -1.999950         0.421566        -1.996006
 H        -3.780454         0.618850        -1.389552
 H        -1.430604         2.511826        -1.680842
 H        -3.199165         2.991636        -1.140063
 H        -1.320213         3.241992         0.814170
