19
Iteration:  3736
 O         0.504512         0.707478         0.227840
 C        -0.872554         0.956214         0.656254
 C        -1.361016         0.937162         2.142302
 C        -2.551485         1.297754         1.285497
 O        -3.682671         1.486744         1.915447
 C        -2.192859         0.269524         0.176205
 C        -2.574191         0.760106        -1.240222
 C        -2.209279         2.289911        -1.023653
 C        -1.593417         2.338739         0.308610
 H         0.977907         0.179883         0.982271
 H        -1.308107         0.058771         2.871609
 H        -0.948232         1.718017         2.794835
 H        -4.411606         1.095684         1.362781
 H        -2.455422        -0.757260         0.507699
 H        -1.994103         0.235891        -2.039201
 H        -3.673654         0.511530        -1.392950
 H        -1.547967         2.637860        -1.812064
 H        -3.155889         2.937179        -0.849561
 H        -1.367110         3.257651         0.929938
