19
Iteration:  4086charge 0 multiplicity 1
 O         0.429945         0.706035         0.155392
 C        -0.768655         0.999190         0.750961
 C        -1.315547         0.928700         2.147300
 C        -2.456129         1.372828         1.323696
 O        -3.840139         1.524897         1.684919
 C        -2.099668         0.253089         0.326756
 C        -2.496684         0.678887        -1.051750
 C        -2.263047         2.170166        -0.989195
 C        -1.645649         2.288367         0.380717
 H         0.445010         1.150684        -0.720562
 H        -1.213243        -0.042736         2.643118
 H        -0.868539         1.705376         2.691494
 H        -4.172771         2.070381         0.894897
 H        -2.251735        -0.767943         0.762613
 H        -2.122460         0.162606        -1.881556
 H        -3.567555         0.475268        -1.258197
 H        -1.640557         2.525176        -1.779128
 H        -3.250555         2.676636        -1.007550
 H        -1.245718         3.221970         0.866556
