19
Iteration:   938charge 0 multiplicity 1
 O         0.367068         0.846474         0.061720
 C        -0.860439         0.919708         0.717746
 C        -1.271318         0.815162         2.170190
 C        -2.454461         1.308278         1.346395
 O        -3.757436         1.603517         1.731867
 C        -2.136558         0.253012         0.233033
 C        -2.502258         0.740022        -1.147991
 C        -2.244913         2.236746        -0.996719
 C        -1.652054         2.293041         0.460071
 H         0.554264        -0.168748        -0.008884
 H        -1.458780        -0.126588         2.538406
 H        -0.831243         1.409345         2.992368
 H        -3.897318         1.304043         2.585414
 H        -2.224016        -0.807193         0.416237
 H        -1.870972         0.292942        -1.928401
 H        -3.553231         0.501653        -1.420081
 H        -1.485578         2.681820        -1.699802
 H        -3.229069         2.851536        -1.070215
 H        -1.293866         3.253989         0.808551
