19
Iteration:    48
 O         0.357878         0.864084         0.090439
 C        -0.864620         0.930062         0.711219
 C        -1.320803         0.831147         2.189603
 C        -2.478176         1.293913         1.308386
 O        -3.754266         1.383819         1.825456
 C        -2.179029         0.236155         0.231623
 C        -2.620700         0.849816        -1.178413
 C        -2.081887         2.255045        -1.055763
 C        -1.582578         2.266745         0.414998
 H         0.895608         0.266871         0.807635
 H        -1.566714        -0.035672         2.755895
 H        -0.753118         1.570146         2.820173
 H        -4.126381         2.373937         1.866129
 H        -2.343180        -0.867653         0.390572
 H        -2.047683         0.336281        -1.952758
 H        -3.681422         0.809628        -1.345910
 H        -1.263690         2.579274        -1.877338
 H        -2.969571         2.943663        -1.172238
 H        -1.269083         3.269316         0.899333
