19
Iteration:   134
 O         0.577623         0.653380         0.160020
 C        -0.800478         0.885636         0.635004
 C        -1.268344         0.899363         2.263216
 C        -2.454381         1.376523         1.438501
 O        -3.914493         1.446433         1.693065
 C        -2.165181         0.281151         0.236950
 C        -2.580191         0.797576        -1.175478
 C        -2.347400         2.312302        -1.004930
 C        -1.582039         2.270839         0.357197
 H         0.782381         1.318069        -0.410332
 H        -1.344374        -0.096006         2.599126
 H        -0.718032         1.587157         2.947436
 H        -4.069831         1.963337         2.435741
 H        -2.386639        -0.766016         0.441754
 H        -1.876987         0.290421        -1.856972
 H        -3.507029         0.481016        -1.608282
 H        -1.755835         2.881777        -1.698017
 H        -3.311455         2.767808        -0.885879
 H        -1.045404         3.256286         0.689071
