19
Iteration:  1152
 O         0.475564         0.647663         0.163367
 C        -0.809679         1.031491         0.643545
 C        -1.202779         0.883381         2.176595
 C        -2.538372         1.324602         1.326681
 O        -3.901346         1.626900         1.915312
 C        -2.196616         0.258367         0.234847
 C        -2.477772         0.718064        -1.247145
 C        -2.194920         2.246217        -1.050373
 C        -1.695482         2.275977         0.419962
 H         0.566141         0.989727        -0.808633
 H        -1.353094        -0.285193         2.417712
 H        -0.696819         1.503373         2.864390
 H        -3.925546         0.922380         2.493593
 H        -2.331716        -0.809630         0.635403
 H        -1.727179         0.357827        -1.924261
 H        -3.403635         0.427048        -1.708410
 H        -1.522811         2.613273        -1.822629
 H        -3.003128         2.974950        -0.984259
 H        -1.405914         3.232558         0.845295
