19
Iteration:  3564charge 0 multiplicity 1
 O         0.407600         0.625748         0.168840
 C        -0.816260         0.958444         0.597670
 C        -1.224703         0.977899         2.210330
 C        -2.456959         1.280336         1.321821
 O        -3.846963         1.505030         1.828126
 C        -2.134220         0.205606         0.206660
 C        -2.522638         0.768681        -1.166297
 C        -2.167202         2.293309        -0.972220
 C        -1.760285         2.270198         0.419783
 H         0.855574         1.408330        -0.055058
 H        -1.343905        -0.023991         2.726307
 H        -0.821155         1.766185         2.816550
 H        -4.291786         2.005956         1.191173
 H        -2.123944        -0.861485         0.477910
 H        -1.889788         0.296486        -2.008430
 H        -3.617105         0.505247        -1.276134
 H        -1.358795         2.651249        -1.609293
 H        -3.000235         3.030015        -1.125905
 H        -1.394410         3.235535         0.814070
