19
Iteration:  2841charge 0 multiplicity 1
 O         0.506830         0.633893         0.193817
 C        -0.757434         1.076295         0.685913
 C        -1.277304         0.965785         2.103831
 C        -2.469362         1.247078         1.375575
 O        -3.803277         1.674793         1.761567
 C        -2.093011         0.242414         0.259428
 C        -2.487464         0.659704        -1.075077
 C        -2.335301         2.214745        -1.041591
 C        -1.829146         2.326336         0.389331
 H         0.205454         0.229776        -0.669548
 H        -1.176692         0.017151         2.656914
 H        -0.959531         1.734553         2.814650
 H        -4.026788         0.842604         2.027041
 H        -2.032959        -0.863318         0.433951
 H        -1.771830         0.402820        -1.868391
 H        -3.398370         0.396418        -1.602338
 H        -1.455556         2.574422        -1.728169
 H        -3.189721         2.860412        -1.207349
 H        -1.461057         3.258251         0.805188
