19
Iteration:  1036
 O         0.621995         0.769582         0.110638
 C        -0.709846         0.936070         0.611939
 C        -1.240910         0.948602         2.108144
 C        -2.539665         1.226200         1.290417
 O        -3.886453         1.679671         1.756301
 C        -2.154755         0.101529         0.202723
 C        -2.721266         0.752677        -1.060595
 C        -2.223464         2.339872        -0.909625
 C        -1.692357         2.215754         0.467198
 H         1.366714         0.146959         0.521673
 H        -1.259603         0.036863         2.677656
 H        -0.856383         1.803744         2.823664
 H        -4.413153         0.969671         1.556392
 H        -2.291148        -0.994785         0.353484
 H        -2.474963         0.278983        -2.057460
 H        -3.892692         0.765373        -1.161170
 H        -1.368321         2.545476        -1.613753
 H        -2.965872         3.180512        -1.157458
 H        -1.223284         3.011077         0.970425
