19
Iteration:  4544
 O         0.484885         0.655917         0.465234
 C        -0.752975         1.086910         0.578943
 C        -1.215222         1.180165         2.099947
 C        -2.496916         1.379578         1.271254
 O        -3.767912         1.435705         1.764247
 C        -2.117995         0.240478         0.377279
 C        -2.570991         0.583269        -1.099329
 C        -2.423074         2.112501        -1.188671
 C        -1.711901         2.297969         0.226670
 H         0.802936         0.596437        -0.365664
 H        -1.221844         0.270082         2.741908
 H        -0.865309         2.062516         2.655829
 H        -3.812138         2.097401         2.503658
 H        -2.259724        -0.693344         0.963101
 H        -1.848247         0.207834        -1.787322
 H        -3.569160         0.060691        -1.190979
 H        -1.737582         2.345325        -2.028708
 H        -3.201971         2.836779        -1.433026
 H        -1.289783         3.345218         0.391909
