19
Iteration:  4437charge 0 multiplicity 1
 O         0.459755         0.781695         0.254284
 C        -0.806588         1.015564         0.715639
 C        -1.298419         1.254663         2.149436
 C        -2.515326         1.260528         1.252560
 O        -3.743302         1.585589         1.853141
 C        -2.150239         0.177893         0.283375
 C        -2.495872         0.477549        -1.097149
 C        -2.174479         2.095798        -1.109000
 C        -1.776774         2.208003         0.292328
 H         0.514315         0.994946        -0.614244
 H        -1.200153         0.285234         2.649432
 H        -0.986245         2.197811         2.732522
 H        -3.966535         2.477035         1.557133
 H        -2.255521        -0.847390         0.687054
 H        -2.322405        -0.266852        -1.843486
 H        -3.633191         0.399013        -1.077951
 H        -1.350110         2.421739        -1.606942
 H        -3.201519         2.521250        -1.305218
 H        -1.443728         3.228116         0.575259
