19
Iteration:  1586charge 0 multiplicity 1
 O         0.360754         0.707597         0.041548
 C        -0.860591         0.959265         0.688333
 C        -1.188247         0.979253         2.175655
 C        -2.560090         1.341220         1.316077
 O        -3.874558         1.683325         1.898417
 C        -2.067972         0.190008         0.218838
 C        -2.488927         0.674935        -1.198773
 C        -2.185864         2.181032        -1.022200
 C        -1.687090         2.232922         0.392871
 H         1.032679         1.157578         0.599662
 H        -1.197477         0.042821         2.675675
 H        -0.758509         1.876229         2.776049
 H        -4.121426         0.735798         2.317144
 H        -2.131912        -0.909689         0.529721
 H        -1.792334         0.228804        -1.961411
 H        -3.551322         0.452584        -1.475132
 H        -1.474953         2.568915        -1.751995
 H        -3.037943         2.808782        -1.153879
 H        -1.288902         3.255977         0.859577
