19
Iteration:  1501
 O         0.495949         0.661348         0.193037
 C        -0.792617         1.042300         0.675410
 C        -1.238167         0.903902         2.192291
 C        -2.464975         1.306703         1.352095
 O        -3.740780         1.631348         1.705987
 C        -2.121726         0.214239         0.249229
 C        -2.643422         0.718384        -1.108611
 C        -2.329579         2.186977        -1.032177
 C        -1.700542         2.279431         0.367741
 H         0.908581         1.568141         0.127873
 H        -1.340402        -0.140726         2.564657
 H        -0.689474         1.665887         2.823009
 H        -4.142781         0.911262         2.075035
 H        -2.326016        -0.748743         0.555217
 H        -2.145146         0.230072        -1.969604
 H        -3.670163         0.581132        -1.433581
 H        -1.617464         2.519335        -1.796863
 H        -3.214995         2.845602        -1.074312
 H        -1.347949         3.233243         0.702204
