19
Iteration:  3787charge 0 multiplicity 1
 O         0.408776         0.843373         0.132552
 C        -0.832308         0.993466         0.726508
 C        -1.225861         0.915641         2.158859
 C        -2.499453         1.222946         1.250439
 O        -3.754963         1.585962         1.779971
 C        -2.169345         0.186701         0.216778
 C        -2.582900         0.749593        -1.179681
 C        -2.146408         2.214504        -0.988081
 C        -1.743119         2.231390         0.494498
 H         0.485289        -0.120945         0.026395
 H        -1.098750         0.019931         2.686316
 H        -1.030435         1.677070         2.970223
 H        -4.023452         2.214927         1.193531
 H        -2.134715        -0.940655         0.368249
 H        -1.984223         0.223799        -1.929599
 H        -3.709075         0.649196        -1.173321
 H        -1.195775         2.391236        -1.531726
 H        -2.882256         2.928920        -1.230741
 H        -1.495502         3.093580         1.178527
