19
Iteration:   821
 O         0.310273         0.795660         0.048305
 C        -0.892467         1.006214         0.657095
 C        -1.243687         0.910206         2.114625
 C        -2.491605         1.228475         1.282604
 O        -3.714114         1.614380         1.807033
 C        -2.193106         0.187827         0.259259
 C        -2.457229         0.792291        -1.118593
 C        -2.196616         2.234955        -0.935147
 C        -1.661549         2.253935         0.461739
 H         0.843139        -0.012766         0.254927
 H        -1.084312        -0.078920         2.696303
 H        -0.940110         1.792422         2.812613
 H        -4.295215         0.952324         1.622936
 H        -2.325150        -0.873016         0.457272
 H        -1.804172         0.375097        -1.921314
 H        -3.479729         0.491599        -1.420506
 H        -1.492119         2.553308        -1.709650
 H        -3.043489         2.851849        -0.893652
 H        -1.284889         3.203830         1.063047
