19
Iteration:  4745
 O         0.476861         0.858810         0.110783
 C        -0.822785         1.061490         0.718312
 C        -1.261900         1.113247         2.203748
 C        -2.531265         1.330461         1.283176
 O        -3.863279         1.721336         1.632222
 C        -2.050007         0.124489         0.417779
 C        -2.503300         0.486711        -1.114942
 C        -2.199882         2.002124        -1.062656
 C        -1.767947         2.231921         0.400315
 H         0.488951         0.133292        -0.689305
 H        -0.910321         0.274464         2.857631
 H        -0.848752         2.026074         2.673635
 H        -3.969575         1.630849         2.592844
 H        -2.004124        -0.864683         0.855136
 H        -1.986170         0.060987        -1.955448
 H        -3.592873         0.308685        -1.268800
 H        -1.408464         2.341614        -1.639768
 H        -3.182780         2.559231        -0.955720
 H        -1.758647         3.224512         0.795522
