19
Iteration:  3562charge 0 multiplicity 1
 O         0.388021         0.627273         0.163395
 C        -0.811513         0.956373         0.609325
 C        -1.228469         0.981859         2.217848
 C        -2.476646         1.285368         1.318361
 O        -3.828479         1.512885         1.826013
 C        -2.108447         0.190405         0.190601
 C        -2.528807         0.752640        -1.167255
 C        -2.173266         2.287704        -0.977563
 C        -1.765929         2.268348         0.445862
 H         0.880606         1.451921        -0.087004
 H        -1.349631        -0.030914         2.709177
 H        -0.786345         1.743222         2.881202
 H        -4.274464         2.053327         1.090940
 H        -2.082552        -0.856141         0.453516
 H        -1.876369         0.377196        -1.990780
 H        -3.629849         0.534454        -1.255611
 H        -1.375025         2.664221        -1.594374
 H        -2.989405         3.070279        -1.176066
 H        -1.356333         3.235733         0.808595
