19
Iteration:  1814charge 0 multiplicity 1
 O         0.469491         0.815737         0.146468
 C        -0.820425         1.019073         0.620259
 C        -1.258205         0.894020         2.128791
 C        -2.550810         1.340166         1.272596
 O        -3.759495         1.669440         1.787673
 C        -2.153614         0.248362         0.264922
 C        -2.568557         0.609811        -1.190708
 C        -2.286277         2.154145        -0.936011
 C        -1.621288         2.270106         0.401415
 H         0.656867         0.095738         0.711293
 H        -1.187890        -0.233102         2.509054
 H        -0.812294         1.690359         2.907459
 H        -4.072668         0.980388         2.262073
 H        -2.230310        -0.772422         0.777407
 H        -1.778274         0.162290        -1.859197
 H        -3.624150         0.401550        -1.541035
 H        -1.659825         2.652484        -1.826889
 H        -3.251173         2.714454        -0.911843
 H        -1.288614         3.303418         0.593146
