19
Iteration:  1135charge 0 multiplicity 1
 O         0.396202         0.713875         0.178867
 C        -0.877241         0.861678         0.662970
 C        -1.277312         0.942290         2.110837
 C        -2.538892         1.289644         1.317746
 O        -3.702460         1.583115         1.875597
 C        -2.240120         0.241988         0.202171
 C        -2.375505         0.778788        -1.188103
 C        -2.205818         2.288114        -1.004725
 C        -1.731251         2.292796         0.435934
 H         0.243026         0.518369        -0.850214
 H        -1.254000         0.057695         2.649044
 H        -0.972796         1.955298         2.565500
 H        -3.900755         1.072245         2.632534
 H        -2.370932        -0.825045         0.407548
 H        -1.610447         0.157484        -1.754774
 H        -3.412619         0.466137        -1.567815
 H        -1.418839         2.803888        -1.601549
 H        -3.163776         2.694763        -1.392731
 H        -1.284524         3.179509         0.915180
