19
Iteration:  2302charge 0 multiplicity 1
 O         0.459688         0.709543         0.186360
 C        -0.867919         0.975925         0.638255
 C        -1.218588         0.966622         2.203885
 C        -2.517807         1.340666         1.374007
 O        -3.824958         1.643006         1.753883
 C        -2.039937         0.213848         0.213682
 C        -2.487527         0.723537        -1.210074
 C        -2.400031         2.277378        -1.030003
 C        -1.643543         2.211350         0.395035
 H         0.566445        -0.298549         0.073680
 H        -1.119308        -0.074124         2.719564
 H        -0.779799         1.839935         2.716846
 H        -4.115025         1.024023         2.384862
 H        -1.886210        -0.817867         0.595782
 H        -1.866948         0.297557        -2.041114
 H        -3.506337         0.386034        -1.414021
 H        -1.771544         2.739065        -1.770225
 H        -3.403723         2.831726        -0.956360
 H        -1.170004         3.103481         0.935307
