19
Iteration:  1719
 O         0.562115         0.803531         0.156022
 C        -0.832290         1.008946         0.620603
 C        -1.283202         0.911188         2.153611
 C        -2.446351         1.385333         1.259482
 O        -3.762643         1.605979         1.690296
 C        -2.132299         0.270362         0.271977
 C        -2.689722         0.638048        -1.034639
 C        -2.227046         2.118408        -0.978683
 C        -1.712863         2.349239         0.429276
 H         0.730990        -0.190969         0.000000
 H        -1.401235        -0.009790         2.630175
 H        -0.836676         1.696819         2.777369
 H        -4.095842         0.605725         1.808230
 H        -2.316667        -0.768888         0.687888
 H        -2.228064         0.130117        -1.910455
 H        -3.768268         0.575845        -1.005227
 H        -1.503546         2.353316        -1.704216
 H        -3.115929         2.717984        -1.099600
 H        -1.363631         3.348245         0.920474
