19
Iteration:  2964
 O         0.557008         0.765844         0.339243
 C        -0.808272         0.973465         0.607046
 C        -1.170353         0.991391         2.118019
 C        -2.548844         1.294516         1.314071
 O        -3.872164         1.472962         1.794785
 C        -2.262300         0.199125         0.243457
 C        -2.646329         0.720966        -1.156518
 C        -2.236652         2.244818        -1.048159
 C        -1.598789         2.227469         0.322603
 H         0.627263         0.797541        -0.627570
 H        -1.082131         0.116432         2.798405
 H        -0.762447         1.931159         2.594248
 H        -3.812528         2.144713         2.535835
 H        -2.315771        -0.839690         0.600344
 H        -1.989534         0.098354        -1.846632
 H        -3.669771         0.500881        -1.462834
 H        -1.464895         2.636443        -1.836496
 H        -3.093924         2.979978        -0.964728
 H        -1.138007         3.157030         0.573477
