19
Iteration:  3169charge 0 multiplicity 1
 O         0.449995         0.653866         0.230741
 C        -0.791079         1.000688         0.699046
 C        -1.269405         0.907922         2.084270
 C        -2.586324         1.271629         1.296823
 O        -3.821731         1.508945         1.817180
 C        -2.128452         0.220954         0.234580
 C        -2.485182         0.771803        -1.156429
 C        -2.211431         2.243432        -0.988356
 C        -1.692914         2.322713         0.377686
 H         0.757593         0.851608        -0.694654
 H        -1.028375        -0.017940         2.571983
 H        -0.968614         1.794543         2.694604
 H        -3.877762         2.422783         2.204357
 H        -2.220108        -0.841531         0.514374
 H        -1.830788         0.287475        -1.895863
 H        -3.547993         0.542210        -1.408451
 H        -1.633140         2.608985        -1.839681
 H        -3.155645         2.760916        -1.118086
 H        -1.570874         3.278732         0.949404
