19
Iteration:  2712
 O         0.487690         0.752942         0.210225
 C        -0.902516         0.920274         0.637898
 C        -1.260313         1.032229         2.202715
 C        -2.490815         1.374739         1.382829
 O        -3.824630         1.616016         1.779085
 C        -2.133351         0.126744         0.223049
 C        -2.638475         0.666682        -1.204244
 C        -2.204222         2.193542        -1.032503
 C        -1.573550         2.287477         0.412712
 H         0.419998         1.084178        -0.711174
 H        -1.251057         0.100403         2.813193
 H        -0.857496         1.894423         2.792022
 H        -3.990787         0.664394         2.201191
 H        -2.193342        -0.977399         0.349950
 H        -1.788204         0.148282        -1.846005
 H        -3.703737         0.523113        -1.361105
 H        -1.539919         2.601581        -1.798735
 H        -3.127722         2.806767        -1.154163
 H        -1.137516         3.207694         0.731414
