19
Iteration:  4322charge 0 multiplicity 1
 O         0.463491         0.798783         0.214725
 C        -0.840121         0.995950         0.675513
 C        -1.243498         1.027275         2.199720
 C        -2.490289         1.378033         1.311250
 O        -3.806450         1.597305         1.658724
 C        -2.092362         0.180245         0.412232
 C        -2.519278         0.558679        -1.055416
 C        -2.270300         2.061312        -1.145361
 C        -1.766954         2.358739         0.332330
 H         0.529090         0.951580        -0.747858
 H        -1.287039         0.046869         2.739767
 H        -0.669051         1.717960         2.804817
 H        -3.754557         1.996491         2.533578
 H        -2.275500        -0.776407         0.922814
 H        -1.809300        -0.071180        -1.692740
 H        -3.517143         0.247443        -1.379663
 H        -1.390516         2.203264        -1.777463
 H        -3.224438         2.424771        -1.412347
 H        -1.442720         3.375971         0.580077
