19
Iteration:  3637charge 0 multiplicity 1
 O         0.471628         0.658245         0.105875
 C        -0.748550         1.016692         0.633746
 C        -1.235326         0.903545         2.117607
 C        -2.613635         1.257324         1.349505
 O        -3.839589         1.642553         1.862535
 C        -2.122683         0.212534         0.181350
 C        -2.569665         0.736137        -1.169987
 C        -2.173599         2.252570        -0.977801
 C        -1.744609         2.239705         0.467183
 H         1.019143         0.952716         0.837244
 H        -0.992980        -0.087461         2.600331
 H        -0.826391         1.752022         2.743200
 H        -4.413400         1.353939         1.213469
 H        -2.059552        -0.814947         0.529235
 H        -2.022328         0.389588        -2.028041
 H        -3.587515         0.569912        -1.526315
 H        -1.207082         2.430658        -1.450670
 H        -2.854651         3.130326        -1.244630
 H        -1.675138         3.258190         0.923002
