19
Iteration:  2545
 O         0.471481         0.639569         0.243268
 C        -0.830440         0.993918         0.708735
 C        -1.176265         1.099720         2.180557
 C        -2.530170         1.295781         1.333115
 O        -3.795957         1.528301         1.802673
 C        -2.177201         0.216590         0.239622
 C        -2.606066         0.791326        -1.158414
 C        -2.187465         2.193304        -1.148764
 C        -1.677687         2.236190         0.368981
 H         0.453592         1.143296        -0.529200
 H        -0.999814         0.125353         2.702090
 H        -0.863896         1.883820         2.866868
 H        -4.082770         0.763162         2.166337
 H        -2.391160        -0.822471         0.461106
 H        -2.153493         0.148952        -2.092188
 H        -3.663416         0.571955        -1.240356
 H        -1.494499         2.788942        -1.765092
 H        -3.038762         2.836387        -1.158712
 H        -1.347318         3.123162         0.882015
