19
Iteration:  1666charge 0 multiplicity 1
 O         0.518647         0.795759         0.136343
 C        -0.773846         0.977716         0.761947
 C        -1.265509         0.975222         2.084002
 C        -2.470601         1.287569         1.257234
 O        -3.748261         1.648791         1.673497
 C        -2.156266         0.210071         0.277115
 C        -2.672175         0.650393        -1.115360
 C        -2.317059         2.226524        -0.992932
 C        -1.664265         2.244212         0.415381
 H         1.140200         0.229160         0.709583
 H        -1.255041        -0.055788         2.638253
 H        -0.858011         1.780967         2.707544
 H        -3.984598         0.828002         2.334525
 H        -2.426796        -0.730753         0.601739
 H        -2.211816         0.145241        -1.984139
 H        -3.740736         0.470895        -1.169286
 H        -1.614921         2.531937        -1.710716
 H        -3.210569         2.851967        -0.996318
 H        -1.323180         3.159163         0.960478
