19
Iteration:   618
 O         0.553992         0.756831         0.183495
 C        -0.806209         1.024015         0.545265
 C        -1.328672         0.946401         2.080208
 C        -2.575424         1.311015         1.374205
 O        -3.861896         1.468844         1.919670
 C        -2.283636         0.246202         0.231336
 C        -2.522434         0.750525        -1.165058
 C        -2.275915         2.246814        -1.034466
 C        -1.529648         2.285474         0.321719
 H         0.783917        -0.259276         0.330822
 H        -1.093053        -0.085891         2.483892
 H        -0.791087         1.607740         2.808923
 H        -3.729949         1.888023         2.773751
 H        -2.353092        -0.835875         0.681206
 H        -1.686319         0.328870        -1.746532
 H        -3.406541         0.436088        -1.782828
 H        -1.744064         2.739778        -1.876410
 H        -3.215111         2.924217        -0.923626
 H        -0.981012         3.096562         0.668492
