19
Iteration:  4476
 O         0.487033         0.883428         0.193286
 C        -0.815192         1.054266         0.675374
 C        -1.178267         0.990329         2.170348
 C        -2.500783         1.434846         1.328210
 O        -3.875520         1.616905         1.673587
 C        -2.156787         0.229127         0.426731
 C        -2.526710         0.404893        -1.073638
 C        -2.218300         1.976256        -1.062318
 C        -1.709886         2.256667         0.328046
 H         0.433931         1.037970        -0.860984
 H        -1.407140         0.006020         2.620564
 H        -0.765269         1.720420         2.819323
 H        -3.870268         2.515631         2.111779
 H        -2.481649        -0.690085         0.907348
 H        -1.894528        -0.196682        -1.792330
 H        -3.589008         0.393819        -1.287683
 H        -1.565585         2.423194        -1.894289
 H        -3.060789         2.578043        -1.396781
 H        -1.310910         3.221968         0.703873
