19
Iteration:  1766
 O         0.352675         0.807391         0.028254
 C        -0.862439         0.965014         0.661093
 C        -1.277116         1.110590         2.125654
 C        -2.559446         1.268749         1.341845
 O        -3.755431         1.650280         1.873813
 C        -2.187264         0.148990         0.246265
 C        -2.402107         0.637445        -1.225404
 C        -2.132448         2.186401        -0.990171
 C        -1.746940         2.208256         0.472094
 H         0.652627        -0.141506         0.223737
 H        -1.211909         0.129413         2.774931
 H        -0.991281         1.994376         2.625781
 H        -3.924301         1.108631         2.780076
 H        -2.274808        -0.876015         0.361039
 H        -1.658362         0.207120        -1.912369
 H        -3.421903         0.537066        -1.617549
 H        -1.280281         2.557161        -1.555435
 H        -2.987320         2.859313        -1.248368
 H        -1.450340         3.178220         0.863290
