19
Iteration:  2535charge 0 multiplicity 1
 O         0.425448         0.628613         0.251271
 C        -0.837010         1.060196         0.659906
 C        -1.234366         1.034627         2.194838
 C        -2.476110         1.249132         1.326559
 O        -3.741527         1.564330         1.781699
 C        -2.139718         0.218982         0.253313
 C        -2.579305         0.724695        -1.146533
 C        -2.255409         2.230578        -1.053549
 C        -1.716126         2.316620         0.365851
 H         0.779665         0.852848        -0.596195
 H        -1.203621        -0.015078         2.582719
 H        -0.858323         1.853593         2.827312
 H        -4.153667         0.860058         2.165172
 H        -2.131501        -0.847349         0.384710
 H        -1.957907         0.172755        -1.998930
 H        -3.617576         0.666840        -1.401242
 H        -1.450538         2.425195        -1.820186
 H        -3.120374         2.845193        -1.237133
 H        -1.372383         3.255185         0.680332
