19
Iteration:  4850
 O         0.486236         0.765714         0.232189
 C        -0.795651         1.022824         0.714535
 C        -1.219203         1.093749         2.160805
 C        -2.503545         1.308060         1.299892
 O        -3.795859         1.589862         1.743782
 C        -2.052255         0.153955         0.390077
 C        -2.603103         0.550542        -1.045476
 C        -2.310365         2.079411        -1.198412
 C        -1.737114         2.261605         0.294976
 H         1.079107         1.432447         0.593987
 H        -1.332377         0.251976         2.766778
 H        -0.876993         2.034373         2.638724
 H        -4.192731         2.369738         1.345444
 H        -2.087307        -0.875293         0.812052
 H        -2.025594         0.027920        -1.803352
 H        -3.674358         0.268036        -1.170865
 H        -1.729623         2.362044        -2.065807
 H        -3.137562         2.674536        -1.330310
 H        -1.411575         3.287544         0.513872
