19
Iteration:  2933charge 0 multiplicity 1
 O         0.527922         0.693500         0.336779
 C        -0.780009         0.995685         0.657165
 C        -1.271200         0.985509         2.113318
 C        -2.493881         1.322312         1.247031
 O        -3.789874         1.527204         1.765088
 C        -2.083664         0.232858         0.234643
 C        -2.724289         0.719190        -1.126567
 C        -2.244477         2.241718        -1.044800
 C        -1.700226         2.266304         0.329213
 H         0.502383         0.934578        -0.627952
 H        -1.216275         0.172306         2.840817
 H        -0.933984         1.838341         2.700001
 H        -3.848759         1.069896         2.631385
 H        -2.108689        -0.783897         0.638056
 H        -2.277473         0.066152        -1.920949
 H        -3.758735         0.440958        -1.052211
 H        -1.419094         2.437271        -1.757934
 H        -2.945331         3.097603        -1.328460
 H        -1.228039         3.204424         0.638808
