19
Iteration:  4336charge 0 multiplicity 1
 O         0.498551         0.825368         0.196979
 C        -0.806708         1.063944         0.652238
 C        -1.183360         1.091823         2.139476
 C        -2.534282         1.358863         1.347536
 O        -3.860637         1.671944         1.616622
 C        -2.176924         0.212231         0.379907
 C        -2.520365         0.442889        -1.051606
 C        -2.231605         2.059487        -1.015565
 C        -1.702106         2.211911         0.363107
 H         0.440255         0.697085        -0.777386
 H        -1.103813         0.050259         2.605207
 H        -0.917281         1.977090         2.721378
 H        -4.121567         1.522939         2.550639
 H        -2.154827        -0.862154         0.684633
 H        -1.905440        -0.084012        -1.801480
 H        -3.601012         0.198375        -1.329980
 H        -1.572984         2.416931        -1.716319
 H        -3.041872         2.787017        -1.202191
 H        -1.362782         3.225502         0.775713
