19
Iteration:   247
 O         0.561751         0.775018         0.116227
 C        -0.747960         0.983362         0.693519
 C        -1.261389         0.940805         2.249748
 C        -2.515831         1.296485         1.389925
 O        -3.840297         1.487185         1.702290
 C        -2.164435         0.249132         0.237337
 C        -2.612987         0.760325        -1.233139
 C        -2.248728         2.230972        -1.008263
 C        -1.675852         2.222068         0.425755
 H         0.503750        -0.251103         0.005636
 H        -1.210592        -0.087503         2.703919
 H        -0.932335         1.757433         2.858700
 H        -3.853303         2.273531         2.334946
 H        -2.160801        -0.867117         0.517920
 H        -2.350886         0.220888        -2.148499
 H        -3.730382         0.805328        -1.207840
 H        -1.555650         2.787303        -1.712311
 H        -3.159261         2.870201        -1.098980
 H        -1.361979         3.268331         0.896163
