19
Iteration:  4784
 O         0.453186         0.848476         0.188932
 C        -0.851338         1.036097         0.694094
 C        -1.246651         1.136380         2.174281
 C        -2.539130         1.436026         1.288424
 O        -3.773302         1.600556         1.783929
 C        -2.138687         0.233106         0.376773
 C        -2.532896         0.491032        -1.103921
 C        -2.187213         2.001358        -1.092005
 C        -1.717629         2.290489         0.282326
 H         0.426590        -0.103925         0.039168
 H        -1.278981         0.252367         2.771933
 H        -0.901789         2.060421         2.686783
 H        -4.080995         0.667714         1.922229
 H        -2.181340        -0.700344         0.981184
 H        -1.874574        -0.064912        -1.833939
 H        -3.548448         0.219083        -1.519059
 H        -1.541229         2.271998        -1.963522
 H        -3.015031         2.605165        -1.402433
 H        -1.318302         3.303119         0.624950
