19
Iteration:  3369
 O         0.434459         0.753507         0.170262
 C        -0.782581         0.976633         0.688725
 C        -1.262282         0.881688         2.147589
 C        -2.528354         1.237261         1.295185
 O        -3.818180         1.624784         1.837547
 C        -2.185361         0.229497         0.257537
 C        -2.522245         0.675337        -1.179431
 C        -2.201485         2.213869        -1.009848
 C        -1.640098         2.241153         0.431314
 H         0.786590         1.543546        -0.213197
 H        -1.184101        -0.168532         2.566413
 H        -0.760241         1.590027         2.790284
 H        -4.433446         1.739462         1.159106
 H        -2.418079        -0.800275         0.614659
 H        -1.831155         0.286607        -1.970839
 H        -3.561369         0.581133        -1.483403
 H        -1.598596         2.817447        -1.737889
 H        -3.079914         2.824742        -0.846928
 H        -1.310177         3.233864         0.742094
