19
Iteration:  2504charge 0 multiplicity 1
 O         0.555596         0.727528         0.227851
 C        -0.755528         0.967647         0.664015
 C        -1.240454         0.921147         2.160649
 C        -2.547298         1.323105         1.326744
 O        -3.827733         1.741209         1.759183
 C        -2.105666         0.188958         0.225466
 C        -2.499656         0.693744        -1.178607
 C        -2.357395         2.189820        -0.978971
 C        -1.709736         2.276769         0.397630
 H         0.553950         0.442867        -0.755508
 H        -1.302625        -0.170275         2.536192
 H        -0.745563         1.473281         3.006002
 H        -4.246877         0.920092         2.292927
 H        -2.280483        -0.863256         0.445939
 H        -1.933443         0.205980        -1.975596
 H        -3.543945         0.593199        -1.325358
 H        -1.862480         2.621094        -1.872243
 H        -3.386462         2.550667        -0.962052
 H        -1.301675         3.178528         0.728322
