19
Iteration:  1867
 O         0.521482         0.784614         0.196777
 C        -0.747564         1.014055         0.622771
 C        -1.241442         1.016060         2.110260
 C        -2.476125         1.285210         1.299795
 O        -3.787316         1.571311         1.632005
 C        -2.148340         0.235881         0.242360
 C        -2.742788         0.688784        -1.007002
 C        -2.304154         2.203743        -0.947269
 C        -1.563034         2.284148         0.442044
 H         0.571329        -0.119111         0.336153
 H        -1.355958        -0.055469         2.530201
 H        -0.887765         1.790528         2.840464
 H        -4.194712         0.808855         1.867774
 H        -2.210014        -0.836595         0.433090
 H        -2.152976         0.209352        -1.822443
 H        -3.872153         0.555903        -1.081424
 H        -1.547549         2.192919        -1.835324
 H        -3.090329         2.941016        -1.182277
 H        -1.317587         3.269188         0.804264
