19
Iteration:  4440charge 0 multiplicity 1
 O         0.455675         0.788428         0.256142
 C        -0.801694         1.028929         0.685279
 C        -1.293825         1.222975         2.153073
 C        -2.514189         1.251993         1.266993
 O        -3.770958         1.602505         1.853518
 C        -2.128817         0.172800         0.307506
 C        -2.497239         0.473231        -1.080490
 C        -2.177594         2.093329        -1.129135
 C        -1.780146         2.210430         0.287221
 H         0.428340         1.083588        -0.762417
 H        -1.210678         0.311273         2.744729
 H        -0.970607         2.092578         2.758764
 H        -3.896203         2.540228         1.531453
 H        -2.248771        -0.831419         0.727298
 H        -2.256661        -0.253244        -1.921443
 H        -3.592674         0.501381        -1.125452
 H        -1.263206         2.400104        -1.687029
 H        -3.167304         2.475209        -1.268256
 H        -1.451846         3.148503         0.681611
