19
Iteration:  3264charge 0 multiplicity 1
 O         0.512439         0.855660         0.194689
 C        -0.845806         0.930184         0.596853
 C        -1.325495         0.874847         2.202444
 C        -2.561247         1.288917         1.277571
 O        -3.777268         1.570135         1.785862
 C        -2.218423         0.196706         0.246365
 C        -2.631089         0.689323        -1.103941
 C        -2.152288         2.269718        -0.952267
 C        -1.549286         2.254369         0.398936
 H         0.396719         0.474069        -0.637072
 H        -1.125487        -0.077513         2.688542
 H        -0.970263         1.720523         2.836960
 H        -4.419463         1.272278         1.022449
 H        -2.177153        -0.825010         0.630598
 H        -2.057554         0.305055        -1.953301
 H        -3.706072         0.516389        -1.341281
 H        -1.388377         2.591661        -1.662421
 H        -2.790723         3.182355        -0.801925
 H        -1.118108         3.154711         0.854667
