19
Iteration:  3585
 O         0.519781         0.608797         0.197434
 C        -0.759612         0.962112         0.664194
 C        -1.288084         1.020020         2.111906
 C        -2.627471         1.327119         1.290664
 O        -3.842127         1.370382         1.927380
 C        -2.274880         0.298241         0.211895
 C        -2.569811         0.759016        -1.151348
 C        -2.182917         2.267066        -1.086230
 C        -1.543366         2.312460         0.417867
 H         1.055206         1.476904         0.222076
 H        -1.181691        -0.066322         2.562613
 H        -0.810289         1.745719         2.754765
 H        -4.441911         1.918576         1.315797
 H        -2.404334        -0.750978         0.525231
 H        -1.762664         0.386957        -1.866336
 H        -3.672743         0.601474        -1.450620
 H        -1.630031         2.647442        -1.927812
 H        -3.090603         2.982427        -1.134331
 H        -0.951214         3.195074         0.812664
