19
Iteration:  2889
 O         0.512393         0.861906         0.197408
 C        -0.821466         0.891798         0.627352
 C        -1.214124         0.985424         2.213234
 C        -2.542178         1.323992         1.290944
 O        -3.764671         1.672668         1.758340
 C        -2.209026         0.157545         0.253569
 C        -2.609189         0.639677        -1.090246
 C        -2.251903         2.175107        -1.023112
 C        -1.669493         2.252862         0.429618
 H         0.720174         0.628349        -0.725457
 H        -1.190271        -0.007806         2.662638
 H        -0.666371         1.572070         2.931463
 H        -4.473644         0.936842         1.767195
 H        -2.241985        -0.884747         0.557985
 H        -1.906953         0.382972        -1.926992
 H        -3.529096         0.401517        -1.578224
 H        -1.452251         2.329074        -1.711639
 H        -3.022917         2.969804        -1.263618
 H        -1.390315         3.185162         0.895758
