19
Iteration:  3229charge 0 multiplicity 1
 O         0.506258         0.652765         0.251121
 C        -0.805820         1.049906         0.617526
 C        -1.290545         0.887574         2.160237
 C        -2.491978         1.284024         1.335732
 O        -3.809740         1.568277         1.849547
 C        -2.047503         0.247216         0.179394
 C        -2.600598         0.682447        -1.184857
 C        -2.200460         2.327959        -0.983517
 C        -1.764608         2.327269         0.463304
 H         0.463688         0.132438        -0.517058
 H        -1.045191        -0.157542         2.497783
 H        -0.893128         1.636924         2.856477
 H        -4.587542         1.694528         1.168740
 H        -1.901207        -0.836362         0.256468
 H        -2.141636         0.277376        -2.114868
 H        -3.675039         0.482624        -1.271256
 H        -1.351445         2.444501        -1.685097
 H        -3.031014         2.952439        -1.291627
 H        -1.558986         3.335126         0.762134
