19
Iteration:  2267
 O         0.428346         0.747463         0.047804
 C        -0.879103         1.015988         0.626036
 C        -1.328415         0.972236         2.132033
 C        -2.538292         1.348547         1.342869
 O        -3.769990         1.557232         1.820009
 C        -2.162299         0.235769         0.344297
 C        -2.499539         0.687928        -1.093258
 C        -2.180247         2.260185        -1.046119
 C        -1.666609         2.267995         0.426146
 H         0.647338        -0.198289         0.162712
 H        -1.249149        -0.025197         2.630061
 H        -0.829600         1.748220         2.778205
 H        -4.148368         0.734842         1.932152
 H        -2.159190        -0.824280         0.695666
 H        -1.740995         0.329561        -1.823476
 H        -3.544006         0.425138        -1.524925
 H        -1.253324         2.495243        -1.567704
 H        -2.962744         2.922918        -1.500305
 H        -1.244239         3.237496         0.857379
