19
Iteration:  1636
 O         0.401466         0.738094         0.076647
 C        -0.850384         1.010130         0.640689
 C        -1.277664         0.894318         2.127469
 C        -2.529281         1.341502         1.429623
 O        -3.862056         1.675775         1.900216
 C        -2.051234         0.267042         0.231404
 C        -2.440380         0.591843        -1.196568
 C        -2.270340         2.187293        -1.078916
 C        -1.676611         2.322351         0.386847
 H         0.942879         0.488172         0.780393
 H        -1.350184        -0.194449         2.531275
 H        -0.789122         1.652491         2.650005
 H        -4.025865         1.039064         2.537915
 H        -2.126989        -0.797881         0.495729
 H        -1.828933         0.163948        -1.983921
 H        -3.480502         0.268697        -1.410932
 H        -1.466583         2.590761        -1.777179
 H        -3.179089         2.821436        -1.338327
 H        -1.181828         3.155868         0.705223
