19
Iteration:  1263charge 0 multiplicity 1
 O         0.428711         0.760143         0.132528
 C        -0.827472         1.004980         0.658936
 C        -1.303926         0.972357         2.154602
 C        -2.534153         1.287331         1.337206
 O        -3.779858         1.609094         1.905246
 C        -2.152996         0.200146         0.208350
 C        -2.498172         0.708347        -1.224303
 C        -2.206923         2.259773        -1.066757
 C        -1.642265         2.268139         0.411375
 H         0.613489        -0.147190        -0.096400
 H        -1.312424        -0.000077         2.794042
 H        -0.995344         1.811139         2.791473
 H        -4.082762         0.707246         2.355478
 H        -2.104550        -0.922568         0.495335
 H        -2.031655         0.162365        -1.983120
 H        -3.581062         0.574085        -1.382630
 H        -1.565741         2.645025        -1.853396
 H        -3.095155         2.884232        -0.982241
 H        -1.233990         3.150461         0.813332
