19
Iteration:  2145
 O         0.461291         0.710869         0.134991
 C        -0.790755         0.987581         0.690346
 C        -1.182911         0.977863         2.241985
 C        -2.445622         1.346092         1.273379
 O        -3.863836         1.616301         1.695342
 C        -2.134760         0.243355         0.195787
 C        -2.520451         0.686495        -1.226950
 C        -2.368167         2.224955        -0.942218
 C        -1.646677         2.252722         0.447616
 H         0.686507        -0.180351         0.358534
 H        -1.054634         0.049007         2.732104
 H        -0.928312         1.947569         2.705592
 H        -4.038545         1.248787         2.549986
 H        -2.187724        -0.844173         0.420038
 H        -1.886871         0.101972        -1.880322
 H        -3.570236         0.357339        -1.458171
 H        -1.859707         2.782532        -1.743803
 H        -3.314672         2.729995        -0.834750
 H        -1.331477         3.125422         1.005827
