19
Iteration:  2761charge 0 multiplicity 1
 O         0.487181         0.777449         0.275622
 C        -0.816396         1.065255         0.634051
 C        -1.185293         0.877200         2.170425
 C        -2.496599         1.250083         1.338134
 O        -3.796530         1.727626         1.713845
 C        -2.062018         0.256914         0.215752
 C        -2.696203         0.635093        -1.199496
 C        -2.237823         2.073768        -1.013403
 C        -1.741892         2.235239         0.451356
 H         0.628406         1.307592        -0.558056
 H        -1.228805        -0.177026         2.487222
 H        -0.695720         1.613565         2.827936
 H        -4.151433         1.082491         2.245767
 H        -2.144930        -0.792834         0.498578
 H        -2.258621         0.211528        -2.045862
 H        -3.806385         0.617269        -0.981661
 H        -1.344971         2.250812        -1.671759
 H        -2.810209         2.967945        -1.257170
 H        -1.402077         3.291622         0.774608
