19
Iteration:  1468charge 0 multiplicity 1
 O         0.407633         0.679657         0.013861
 C        -0.839702         0.999687         0.623562
 C        -1.328639         0.982524         2.146722
 C        -2.566460         1.313334         1.330958
 O        -3.802486         1.676210         1.925211
 C        -2.103628         0.187519         0.277280
 C        -2.433261         0.664057        -1.165574
 C        -2.211363         2.175142        -1.027400
 C        -1.724716         2.274909         0.402852
 H         1.169928         1.095377         0.329392
 H        -1.302893        -0.057978         2.583588
 H        -0.777514         1.662921         2.936094
 H        -4.220238         0.927532         2.523320
 H        -2.130851        -0.818306         0.519177
 H        -1.589406         0.491208        -1.876412
 H        -3.424311         0.398704        -1.569086
 H        -1.429545         2.580338        -1.687213
 H        -3.121999         2.785639        -1.199758
 H        -1.369772         3.249606         0.660756
