19
Iteration:  2365
 O         0.424907         0.876513         0.153657
 C        -0.871167         0.924947         0.634297
 C        -1.312294         0.814142         2.071501
 C        -2.494579         1.365564         1.270698
 O        -3.764271         1.701489         1.786848
 C        -2.044590         0.157908         0.229604
 C        -2.557940         0.667078        -1.066822
 C        -2.204845         2.209050        -0.999033
 C        -1.698633         2.298535         0.440202
 H         0.852908         0.141924         0.686447
 H        -1.316793        -0.152715         2.504892
 H        -0.861278         1.518393         2.759598
 H        -4.097420         0.892950         2.031892
 H        -2.225469        -0.893960         0.546165
 H        -2.227307         0.197692        -2.002906
 H        -3.735425         0.582475        -0.956694
 H        -1.447090         2.265644        -1.766326
 H        -3.049272         2.860964        -1.305715
 H        -1.252887         3.281609         0.794514
