19
Iteration:  1266
 O         0.438037         0.764851         0.128127
 C        -0.831395         0.975374         0.672158
 C        -1.307328         0.984246         2.124964
 C        -2.558711         1.297527         1.339092
 O        -3.787625         1.606300         1.923600
 C        -2.148834         0.183644         0.212362
 C        -2.483867         0.728396        -1.210406
 C        -2.185761         2.263669        -1.046494
 C        -1.659343         2.249598         0.390818
 H         0.617867        -0.115992        -0.177997
 H        -1.311158         0.004336         2.703380
 H        -0.919358         1.925896         2.767594
 H        -4.089992         0.808663         2.343162
 H        -2.152142        -0.893464         0.504890
 H        -2.002259         0.180041        -2.054059
 H        -3.563178         0.477371        -1.410091
 H        -1.562882         2.662541        -1.814993
 H        -3.095782         2.833868        -0.991825
 H        -1.223817         3.172928         0.823581
