19
Iteration:  2038charge 0 multiplicity 1
 O         0.556637         0.786528         0.101436
 C        -0.810648         1.011675         0.666431
 C        -1.288224         0.928903         2.264697
 C        -2.466961         1.372574         1.348909
 O        -3.765555         1.546448         1.660060
 C        -2.135665         0.240557         0.269770
 C        -2.719112         0.734881        -1.082871
 C        -2.281854         2.208731        -1.069121
 C        -1.665747         2.287546         0.384546
 H         0.801801        -0.069958         0.556973
 H        -1.380682        -0.104191         2.744037
 H        -0.743448         1.520358         3.080561
 H        -4.155284         0.755514         1.924043
 H        -2.125876        -0.824915         0.532690
 H        -2.169967         0.157921        -1.839736
 H        -3.759330         0.447653        -1.174735
 H        -1.464109         2.338011        -1.732433
 H        -3.052097         3.047896        -1.232507
 H        -1.187156         3.173513         0.868426
