19
Iteration:   990charge 0 multiplicity 1
 O         0.453285         0.758076         0.067950
 C        -0.878483         0.934281         0.650298
 C        -1.295025         0.914701         2.179399
 C        -2.516738         1.343436         1.304430
 O        -3.796560         1.556345         1.916834
 C        -2.180282         0.254227         0.254749
 C        -2.477696         0.725410        -1.203110
 C        -2.207816         2.311486        -1.047474
 C        -1.631057         2.302321         0.414707
 H         0.595589        -0.201011         0.227581
 H        -1.376944        -0.158062         2.666484
 H        -0.869665         1.613775         2.908706
 H        -4.007802         0.681861         2.071356
 H        -2.436687        -0.807884         0.635988
 H        -1.811537         0.334316        -1.990094
 H        -3.547098         0.411768        -1.583784
 H        -1.556212         2.741240        -1.775093
 H        -3.073075         2.963933        -1.063202
 H        -1.178198         3.144540         0.818151
