19
Iteration:  1984charge 0 multiplicity 1
 O         0.500724         0.749454         0.156100
 C        -0.781916         0.950178         0.726217
 C        -1.228662         0.923578         2.170148
 C        -2.483397         1.309124         1.285360
 O        -3.737171         1.664528         1.699646
 C        -2.123777         0.242716         0.249800
 C        -2.545701         0.731262        -1.143719
 C        -2.407230         2.200879        -1.005767
 C        -1.722059         2.244488         0.389183
 H         0.879394        -0.125030         0.300346
 H        -1.161585         0.004066         2.796278
 H        -1.089540         1.847611         2.765790
 H        -4.093667         1.005202         2.206233
 H        -2.331528        -0.765200         0.580644
 H        -1.912204         0.269525        -1.918394
 H        -3.506184         0.313989        -1.443815
 H        -1.757540         2.702340        -1.640956
 H        -3.275866         2.896223        -1.010377
 H        -1.449733         3.183635         0.919846
