19
Iteration:  2864charge 0 multiplicity 1
 O         0.432002         0.822930         0.165091
 C        -0.819883         0.883831         0.702577
 C        -1.247794         0.983367         2.173243
 C        -2.559715         1.318294         1.292144
 O        -3.793770         1.685524         1.788149
 C        -2.128204         0.268934         0.270677
 C        -2.465558         0.594457        -1.169896
 C        -2.248077         2.178874        -0.992957
 C        -1.660544         2.219362         0.394354
 H         0.477855         0.412517        -0.674157
 H        -1.044726         0.026797         2.687378
 H        -0.803158         1.725737         2.839380
 H        -4.425490         0.826382         1.835985
 H        -2.168243        -0.771824         0.680258
 H        -2.005938         0.241380        -2.102696
 H        -3.508990         0.563628        -1.430220
 H        -1.703015         2.889184        -1.718106
 H        -3.252975         2.631462        -0.831623
 H        -1.216445         3.135762         0.734721
