19
Iteration:   810
 O         0.391413         0.766175         0.005397
 C        -0.810630         0.949295         0.679529
 C        -1.222146         0.912031         2.159989
 C        -2.558526         1.172619         1.379426
 O        -3.744339         1.688097         1.819847
 C        -2.124450         0.190540         0.220246
 C        -2.445167         0.750817        -1.166497
 C        -2.214102         2.294949        -0.937856
 C        -1.784094         2.249638         0.475753
 H         0.513065        -0.138168         0.111611
 H        -1.131822        -0.098251         2.709398
 H        -0.931220         1.843891         2.778954
 H        -4.544484         1.092121         1.736847
 H        -2.047600        -0.888085         0.339647
 H        -1.781372         0.306296        -1.948592
 H        -3.513095         0.671084        -1.456883
 H        -1.437542         2.732815        -1.584730
 H        -3.101660         2.820773        -1.161939
 H        -1.466124         3.331440         0.854724
