19
Iteration:  2392
 O         0.490334         0.820198         0.058333
 C        -0.788079         1.000956         0.723268
 C        -1.248447         0.972783         2.241197
 C        -2.539986         1.200929         1.359782
 O        -3.841706         1.585839         1.822390
 C        -2.244961         0.205168         0.253639
 C        -2.675106         0.794879        -1.177072
 C        -2.083198         2.185815        -1.054026
 C        -1.654624         2.236412         0.366516
 H         1.019153         0.217229         0.609729
 H        -0.825881         0.025565         2.786121
 H        -0.993554         1.971651         2.709707
 H        -4.250958         0.845568         2.123522
 H        -2.372033        -0.878203         0.360492
 H        -2.052575         0.271657        -1.953702
 H        -3.675070         0.751416        -1.427050
 H        -1.272726         2.037880        -1.799132
 H        -2.741799         3.017642        -1.298531
 H        -1.403982         3.261008         0.546521
