19
Iteration:  2975charge 0 multiplicity 1
 O         0.478372         0.757491         0.291237
 C        -0.819810         0.924825         0.686706
 C        -1.260086         0.966244         2.061867
 C        -2.507507         1.329844         1.334396
 O        -3.822885         1.502750         1.815035
 C        -2.102210         0.265152         0.265507
 C        -2.588283         0.653226        -1.145689
 C        -2.289686         2.238547        -1.053059
 C        -1.634235         2.238443         0.368797
 H         0.710348         0.779446        -0.706783
 H        -1.203287        -0.043740         2.535606
 H        -0.831873         1.812448         2.716852
 H        -3.926258         2.338057         2.153319
 H        -2.296351        -0.809537         0.420211
 H        -1.988829         0.406516        -2.073325
 H        -3.645330         0.504284        -1.343768
 H        -1.472203         2.517563        -1.875376
 H        -3.165971         2.971725        -1.241236
 H        -1.246807         3.128468         0.812954
