19
Iteration:  2876
 O         0.449304         0.895097         0.197853
 C        -0.877334         0.930841         0.644846
 C        -1.247395         0.944615         2.114405
 C        -2.468348         1.348550         1.385707
 O        -3.815695         1.687924         1.772184
 C        -2.157282         0.105283         0.274881
 C        -2.506669         0.693359        -1.135022
 C        -2.241058         2.191381        -0.979315
 C        -1.615734         2.181108         0.384935
 H         0.343171         0.473741        -0.686998
 H        -1.404389         0.076345         2.742204
 H        -0.849409         1.872451         2.513242
 H        -4.241128         0.865316         1.683466
 H        -2.438542        -0.961364         0.431889
 H        -1.795852         0.061574        -1.736593
 H        -3.510868         0.391212        -1.330894
 H        -1.593828         2.578979        -1.812054
 H        -3.227768         2.753008        -1.016781
 H        -1.049256         3.005548         0.724970
