19
Iteration:  1029
 O         0.593265         0.764671         0.113319
 C        -0.756838         0.972780         0.593491
 C        -1.224291         0.913959         2.080155
 C        -2.533715         1.297946         1.294758
 O        -3.844039         1.632286         1.765626
 C        -2.146662         0.153258         0.211670
 C        -2.721460         0.731027        -1.099157
 C        -2.204269         2.318431        -0.922647
 C        -1.672026         2.251601         0.483062
 H         0.990555        -0.005977         0.711978
 H        -1.219811        -0.026866         2.668778
 H        -0.949602         1.556489         2.912638
 H        -4.613888         0.982297         1.635279
 H        -2.280692        -0.868519         0.479642
 H        -2.364803         0.201991        -1.993802
 H        -3.763265         0.663816        -1.146344
 H        -1.313777         2.483365        -1.605673
 H        -3.071152         2.974708        -1.184439
 H        -1.283580         3.203040         1.065454
