19
Iteration:  3132charge 0 multiplicity 1
 O         0.516372         0.810488         0.202056
 C        -0.834789         0.864772         0.671471
 C        -1.226374         0.861749         2.200144
 C        -2.548110         1.357998         1.263265
 O        -3.868838         1.609363         1.671630
 C        -2.132038         0.209980         0.209227
 C        -2.566478         0.734728        -1.094449
 C        -2.238579         2.149502        -0.960804
 C        -1.583547         2.263202         0.432441
 H         0.339695         1.105825        -0.685984
 H        -1.200941        -0.144213         2.693166
 H        -0.854000         1.669697         2.834260
 H        -3.952022         1.706263         2.717268
 H        -2.329150        -0.864818         0.292798
 H        -2.091039         0.215856        -1.942159
 H        -3.656119         0.675979        -1.278297
 H        -1.502258         2.604572        -1.660559
 H        -3.162886         2.859295        -0.948651
 H        -1.388404         3.320810         0.652321
