19
Iteration:  4766
 O         0.422526         0.839042         0.109273
 C        -0.781420         1.026434         0.708075
 C        -1.261589         1.193553         2.197638
 C        -2.552806         1.305351         1.359848
 O        -3.871139         1.703742         1.712408
 C        -2.059664         0.150753         0.342620
 C        -2.459664         0.499481        -1.039377
 C        -2.219746         2.069981        -1.141047
 C        -1.722979         2.241653         0.350687
 H         0.492056         0.048796        -0.469546
 H        -1.231474         0.278664         2.813366
 H        -0.868577         2.022868         2.815530
 H        -4.148122         1.046902         2.412980
 H        -2.119335        -0.910137         0.591129
 H        -1.910930        -0.115909        -1.753949
 H        -3.487161         0.093800        -1.191701
 H        -1.310806         2.231011        -1.667650
 H        -3.114605         2.701449        -1.365894
 H        -1.430502         3.260957         0.634388
