19
Iteration:  4357
 O         0.528695         0.819827         0.193776
 C        -0.814828         0.965509         0.708104
 C        -1.236568         1.172686         2.251828
 C        -2.501178         1.326676         1.292523
 O        -3.867461         1.735269         1.695017
 C        -2.053848         0.096902         0.303040
 C        -2.545777         0.559074        -1.042207
 C        -2.273286         2.075834        -1.078799
 C        -1.719712         2.176656         0.321428
 H         0.489469         0.445862        -0.656973
 H        -1.055497         0.366889         3.033445
 H        -0.865156         2.148658         2.529090
 H        -4.348404         0.932315         1.905425
 H        -2.023812        -0.894277         0.751851
 H        -2.086024         0.238037        -1.984917
 H        -3.658496         0.457136        -1.132329
 H        -1.794175         2.388396        -1.921434
 H        -3.212836         2.594054        -1.203818
 H        -1.277566         3.142786         0.701446
