19
Iteration:  1222charge 0 multiplicity 1
 O         0.547249         0.752950         0.123849
 C        -0.775223         0.907147         0.578714
 C        -1.162579         0.906754         2.114289
 C        -2.533920         1.307971         1.274544
 O        -3.913003         1.628026         1.638907
 C        -2.086455         0.203554         0.270326
 C        -2.693315         0.735636        -0.989972
 C        -2.238859         2.290393        -0.949398
 C        -1.624169         2.259096         0.435110
 H         0.967769         0.490067         0.955694
 H        -1.221684        -0.101996         2.587995
 H        -0.691145         1.791775         2.742507
 H        -4.283429         0.883417         2.032790
 H        -2.195085        -0.868640         0.545480
 H        -2.516595         0.166548        -1.923535
 H        -3.828638         0.783018        -0.940378
 H        -1.528084         2.677911        -1.628540
 H        -3.167382         2.798934        -1.071253
 H        -1.305368         3.136022         0.987469
