19
Iteration:   656charge 0 multiplicity 1
 O         0.355970         0.738869        -0.042192
 C        -0.822380         1.026211         0.675435
 C        -1.281382         0.914464         2.214436
 C        -2.499118         1.219992         1.377773
 O        -3.784828         1.573960         1.780256
 C        -2.099687         0.175415         0.244911
 C        -2.538270         0.728094        -1.224414
 C        -2.159445         2.250949        -0.990451
 C        -1.746577         2.247441         0.532967
 H         0.971371         0.467892         0.680921
 H        -1.101339        -0.079358         2.584244
 H        -1.010375         1.786539         2.815822
 H        -3.756999         2.501854         2.295059
 H        -2.174970        -0.859065         0.308691
 H        -1.893650         0.301457        -2.003427
 H        -3.592084         0.643973        -1.440794
 H        -1.283124         2.524985        -1.553547
 H        -2.990518         2.819716        -1.197083
 H        -1.550930         3.302550         1.033876
