19
Iteration:  1184
 O         0.471693         0.694339         0.175915
 C        -0.829312         0.953694         0.643470
 C        -1.285857         0.912744         2.179631
 C        -2.453880         1.263746         1.265633
 O        -3.692730         1.640941         1.714466
 C        -2.111383         0.172742         0.222108
 C        -2.672344         0.774462        -1.110812
 C        -2.234026         2.275754        -1.001047
 C        -1.711955         2.258683         0.443045
 H         0.899695         1.501897         0.127296
 H        -1.359260        -0.140839         2.695435
 H        -0.859723         1.634795         2.818398
 H        -4.196074         0.768227         1.947409
 H        -2.283917        -0.850236         0.623525
 H        -2.277317         0.230270        -1.976702
 H        -3.714931         0.599696        -0.997600
 H        -1.527230         2.603351        -1.828458
 H        -3.133276         2.954853        -1.078235
 H        -1.419373         3.165194         1.022666
