19
Iteration:  1618charge 0 multiplicity 1
 O         0.393508         0.731625         0.049134
 C        -0.877881         0.987465         0.674389
 C        -1.183887         0.999372         2.157941
 C        -2.573800         1.285944         1.223214
 O        -3.748386         1.685895         1.939111
 C        -2.219568         0.175470         0.235046
 C        -2.411840         0.705047        -1.201330
 C        -2.167973         2.168811        -1.015128
 C        -1.791388         2.231991         0.388149
 H         1.035436         0.659494         0.727854
 H        -1.239015         0.096818         2.673974
 H        -0.952582         1.946049         2.815387
 H        -3.923480         0.961568         2.455125
 H        -2.320290        -0.935507         0.651628
 H        -1.641213         0.134251        -1.767781
 H        -3.370176         0.462595        -1.728944
 H        -1.366109         2.576480        -1.679004
 H        -3.115311         2.669967        -1.131343
 H        -1.717142         3.277944         0.925251
