19
Iteration:  4627
 O         0.504661         0.854490         0.129248
 C        -0.799471         1.036730         0.735515
 C        -1.231086         1.079316         2.219512
 C        -2.566429         1.409890         1.269981
 O        -3.886772         1.547564         1.679040
 C        -2.120309         0.153753         0.458355
 C        -2.522347         0.495809        -0.971511
 C        -2.193849         2.114454        -1.150394
 C        -1.682578         2.232537         0.335270
 H         0.311774         0.833277        -0.835374
 H        -1.343512         0.034562         2.655972
 H        -0.761938         1.819269         2.887002
 H        -4.147694         2.475369         1.825581
 H        -2.201703        -0.889019         0.731226
 H        -1.946834        -0.160675        -1.697832
 H        -3.529923         0.245386        -1.199169
 H        -1.432233         2.298290        -1.936606
 H        -3.159574         2.622705        -1.249159
 H        -1.279912         3.192656         0.440122
