19
Iteration:  4761
 O         0.457986         0.845643         0.091786
 C        -0.800119         1.023270         0.710139
 C        -1.233052         1.176635         2.200533
 C        -2.590102         1.285746         1.382925
 O        -3.869517         1.715597         1.693618
 C        -2.042727         0.149922         0.346233
 C        -2.436742         0.525042        -1.034686
 C        -2.203097         2.050377        -1.094219
 C        -1.768778         2.221610         0.343497
 H         0.320592         0.060092        -0.461581
 H        -1.277323         0.269249         2.819156
 H        -0.986401         2.090739         2.766653
 H        -4.170707         1.223325         2.456669
 H        -2.076771        -0.917371         0.665357
 H        -2.020549        -0.175609        -1.806254
 H        -3.501306         0.230384        -1.191436
 H        -1.431090         2.436463        -1.901094
 H        -3.055153         2.590791        -1.499108
 H        -1.319806         3.208052         0.640763
