19
Iteration:  1356
 O         0.519427         0.714238         0.257335
 C        -0.773685         0.967680         0.692054
 C        -1.097672         0.985670         2.141051
 C        -2.505649         1.227890         1.293047
 O        -3.788734         1.608028         1.648960
 C        -2.216492         0.174753         0.253860
 C        -2.734423         0.778063        -1.088514
 C        -2.310546         2.235842        -0.990375
 C        -1.614512         2.180178         0.361239
 H         0.891821         1.573620        -0.090563
 H        -0.957627         0.146862         2.836617
 H        -0.799154         2.059177         2.769623
 H        -4.176787         0.888616         2.060988
 H        -2.275723        -0.862411         0.397146
 H        -2.324991         0.377185        -2.098564
 H        -3.828594         0.578978        -1.168207
 H        -1.652519         2.602547        -1.794128
 H        -3.206154         2.865060        -0.938805
 H        -1.320964         3.179953         0.884683
