19
Iteration:  4770charge 0 multiplicity 1
 O         0.406948         0.834755         0.125989
 C        -0.799109         1.030964         0.702469
 C        -1.282675         1.192986         2.202666
 C        -2.508419         1.346096         1.313347
 O        -3.864347         1.680327         1.736715
 C        -2.069273         0.168262         0.363286
 C        -2.498194         0.473173        -1.061788
 C        -2.231869         2.067536        -1.153717
 C        -1.692176         2.254053         0.348847
 H         0.609802         0.051551        -0.411623
 H        -1.154022         0.234876         2.836516
 H        -0.804200         1.981621         2.779178
 H        -4.145329         0.965295         2.302373
 H        -2.136622        -0.911823         0.592590
 H        -1.730612        -0.014805        -1.759987
 H        -3.486222         0.101485        -1.206294
 H        -1.201450         2.106188        -1.609859
 H        -3.102146         2.759996        -1.280274
 H        -1.555047         3.277223         0.679571
