19
Iteration:  4628charge 0 multiplicity 1
 O         0.510969         0.850835         0.134289
 C        -0.800857         1.043897         0.726297
 C        -1.235287         1.084406         2.218042
 C        -2.554961         1.414609         1.275079
 O        -3.893548         1.540726         1.683431
 C        -2.128398         0.155099         0.458082
 C        -2.525550         0.491885        -0.968773
 C        -2.196578         2.115682        -1.151416
 C        -1.680835         2.228686         0.331288
 H         0.329684         0.840430        -0.886303
 H        -1.375763         0.056856         2.682679
 H        -0.765293         1.783807         2.893243
 H        -4.121544         2.465594         1.812418
 H        -2.200057        -0.891009         0.698651
 H        -1.899240        -0.142989        -1.709179
 H        -3.560287         0.251595        -1.179895
 H        -1.419447         2.302642        -1.934421
 H        -3.127598         2.625551        -1.238865
 H        -1.268361         3.205602         0.430600
