19
Iteration:   388charge 0 multiplicity 1
 O         0.423780         0.774905         0.100278
 C        -0.828206         0.844458         0.705698
 C        -1.224111         0.937134         2.218248
 C        -2.488857         1.392766         1.308269
 O        -3.839831         1.426673         1.719237
 C        -2.149314         0.208020         0.257050
 C        -2.646769         0.763749        -1.101219
 C        -2.154871         2.215698        -1.015825
 C        -1.560785         2.277333         0.426990
 H         0.845493         1.657017        -0.253978
 H        -1.574261        -0.096024         2.632654
 H        -0.751092         1.594815         2.997420
 H        -4.094086         2.471754         1.833292
 H        -2.344160        -0.892140         0.596037
 H        -2.218915         0.198957        -1.975002
 H        -3.786899         0.680163        -1.211265
 H        -1.684590         2.588748        -1.879883
 H        -3.058444         2.825608        -0.998448
 H        -1.038424         3.234922         0.864758
