19
Iteration:  4825charge 0 multiplicity 1
 O         0.506867         0.764057         0.248554
 C        -0.803399         1.065209         0.656127
 C        -1.280458         1.232254         2.102784
 C        -2.498345         1.332021         1.295507
 O        -3.758981         1.583009         1.833801
 C        -2.083932         0.147681         0.311527
 C        -2.641337         0.517501        -1.126059
 C        -2.273658         2.019453        -1.077927
 C        -1.724546         2.280233         0.325825
 H         1.142710         0.599178         1.045488
 H        -1.355214         0.328252         2.792038
 H        -0.943766         2.191824         2.517555
 H        -4.493364         1.547597         1.194624
 H        -2.042620        -0.912386         0.596868
 H        -2.116376        -0.033568        -1.956553
 H        -3.693056         0.394761        -1.187011
 H        -1.509577         2.421896        -1.831565
 H        -3.095254         2.743685        -1.395519
 H        -1.189173         3.207098         0.368488
