19
Iteration:   628charge 0 multiplicity 1
 O         0.434756         0.794797         0.146509
 C        -0.843770         0.918958         0.634292
 C        -1.263333         0.906125         2.053425
 C        -2.513644         1.367341         1.302852
 O        -3.824802         1.486287         1.912947
 C        -2.187237         0.272163         0.265613
 C        -2.489112         0.750612        -1.156593
 C        -2.261758         2.265175        -1.047285
 C        -1.599385         2.236214         0.374108
 H         0.808890        -0.076545         0.563410
 H        -1.393242        -0.133620         2.484771
 H        -0.861574         1.709566         2.686210
 H        -3.759953         1.980429         2.797052
 H        -2.457616        -0.859711         0.328383
 H        -1.626581         0.414979        -1.776464
 H        -3.433855         0.380216        -1.656787
 H        -1.606563         2.619700        -1.918860
 H        -3.260449         2.894172        -1.011407
 H        -1.272143         3.149937         0.742910
