19
Iteration:  4181charge 0 multiplicity 1
 O         0.476446         0.837888         0.109607
 C        -0.814903         0.997124         0.642691
 C        -1.260536         1.053018         2.140112
 C        -2.562107         1.343853         1.331108
 O        -3.823043         1.562700         1.821796
 C        -2.148132         0.108364         0.345907
 C        -2.520940         0.615874        -1.094058
 C        -2.203337         2.167424        -1.082687
 C        -1.656778         2.257547         0.360734
 H         0.939154         0.125386         0.726054
 H        -1.203088         0.141013         2.796313
 H        -0.950823         1.956282         2.735492
 H        -4.434327         1.945380         1.156020
 H        -2.292770        -0.955494         0.647935
 H        -2.008900         0.009262        -1.911756
 H        -3.605052         0.450005        -1.342094
 H        -1.388596         2.537015        -1.726651
 H        -3.127583         2.776006        -1.161590
 H        -1.379560         3.263412         0.761616
