19
Iteration:  4781charge 0 multiplicity 1
 O         0.445753         0.854351         0.179150
 C        -0.864548         1.029601         0.689427
 C        -1.258047         1.141486         2.198103
 C        -2.514037         1.442167         1.264283
 O        -3.788897         1.610078         1.779777
 C        -2.117537         0.232094         0.389979
 C        -2.547379         0.473760        -1.109600
 C        -2.189224         1.996413        -1.081176
 C        -1.707664         2.286133         0.291564
 H         0.439065        -0.173783        -0.065831
 H        -1.215949         0.168372         2.800907
 H        -0.890735         2.068842         2.629446
 H        -4.093310         0.705416         1.991780
 H        -2.139187        -0.723913         0.949323
 H        -1.785388         0.030003        -1.828667
 H        -3.506704         0.198418        -1.493258
 H        -1.548510         2.272396        -1.973256
 H        -2.945843         2.738062        -1.457384
 H        -1.442035         3.254579         0.706016
