19
Iteration:  1016
 O         0.454685         0.765155         0.156913
 C        -0.842967         0.997689         0.652149
 C        -1.253864         0.828202         2.127940
 C        -2.490040         1.273906         1.320560
 O        -3.757287         1.598209         1.780452
 C        -2.137983         0.315204         0.223583
 C        -2.639570         0.777215        -1.107379
 C        -2.215536         2.196140        -1.005769
 C        -1.655227         2.283616         0.433478
 H         0.781683         0.008483         0.614861
 H        -1.224361        -0.157688         2.439212
 H        -0.699689         1.617513         2.703772
 H        -4.202778         0.784550         1.574004
 H        -2.207464        -0.707579         0.472053
 H        -2.185477         0.270525        -1.989208
 H        -3.707748         0.656115        -1.197761
 H        -1.489043         2.544450        -1.822161
 H        -3.046230         2.992348        -1.054231
 H        -1.353098         3.295997         0.837176
