19
Iteration:  4772
 O         0.406288         0.839867         0.138827
 C        -0.817017         1.032225         0.698591
 C        -1.287088         1.179563         2.209702
 C        -2.491042         1.371852         1.288130
 O        -3.854662         1.667501         1.747366
 C        -2.074024         0.182493         0.376288
 C        -2.511332         0.463253        -1.076938
 C        -2.235121         2.058828        -1.146798
 C        -1.685050         2.255627         0.342161
 H         0.642661        -0.038819        -0.415386
 H        -1.134051         0.264709         2.802899
 H        -0.788310         2.000204         2.750767
 H        -4.159396         0.893540         2.264775
 H        -2.136669        -0.903318         0.631896
 H        -1.687170         0.055342        -1.745264
 H        -3.543988         0.106003        -1.249468
 H        -1.194885         2.095507        -1.654738
 H        -3.031773         2.758683        -1.274521
 H        -1.589614         3.313862         0.724045
