19
Iteration:  1146
 O         0.464011         0.669663         0.158829
 C        -0.839491         0.972339         0.668528
 C        -1.232036         0.886656         2.142078
 C        -2.543000         1.328017         1.326877
 O        -3.824302         1.606876         1.898260
 C        -2.230626         0.244908         0.243231
 C        -2.430934         0.698138        -1.223754
 C        -2.195597         2.289994        -1.064343
 C        -1.711238         2.294478         0.433419
 H         0.451827         0.805016        -0.844831
 H        -1.185712        -0.035565         2.637078
 H        -0.739890         1.593433         2.900178
 H        -3.960310         0.907838         2.668606
 H        -2.522947        -0.785054         0.438128
 H        -1.641250         0.319208        -1.940297
 H        -3.409543         0.525056        -1.778191
 H        -1.457023         2.658377        -1.808708
 H        -3.118035         2.915718        -1.065538
 H        -1.458406         3.271775         0.883223
