19
Iteration:  1953
 O         0.391437         0.859330         0.111510
 C        -0.891743         0.975032         0.650824
 C        -1.274233         0.843083         2.128833
 C        -2.552102         1.373663         1.427960
 O        -3.837050         1.714148         1.903447
 C        -2.088805         0.226375         0.217838
 C        -2.447654         0.617555        -1.238945
 C        -2.244948         2.143694        -1.084117
 C        -1.614547         2.251229         0.377090
 H         0.811679        -0.034439         0.323554
 H        -1.244343        -0.129618         2.518600
 H        -1.026482         1.660307         2.688329
 H        -4.142400         0.965630         2.594565
 H        -2.109755        -0.806928         0.511659
 H        -1.577482         0.238440        -1.809368
 H        -3.467536         0.390345        -1.565656
 H        -1.453627         2.507823        -1.647713
 H        -3.094663         2.816222        -1.020975
 H        -1.203236         3.237559         0.720183
