19
Iteration:  3570
 O         0.474852         0.609607         0.174458
 C        -0.850711         0.966648         0.613132
 C        -1.236212         0.954342         2.147570
 C        -2.466550         1.275166         1.337032
 O        -3.866442         1.463028         1.849905
 C        -2.180877         0.257023         0.264003
 C        -2.509701         0.794699        -1.168587
 C        -2.170987         2.298668        -0.990591
 C        -1.691523         2.277637         0.379262
 H         0.964992         1.480841        -0.021056
 H        -1.222655         0.056839         2.746096
 H        -0.892440         1.889524         2.682125
 H        -4.462439         2.048451         1.223020
 H        -2.325447        -0.801488         0.484196
 H        -2.054787         0.172799        -1.890415
 H        -3.530609         0.554101        -1.445909
 H        -1.353796         2.591830        -1.674077
 H        -3.097734         2.890005        -1.060001
 H        -1.479477         3.222910         0.900420
