19
Iteration:  1267charge 0 multiplicity 1
 O         0.441662         0.770060         0.127389
 C        -0.833780         0.962195         0.676041
 C        -1.306580         0.989290         2.117758
 C        -2.567213         1.301460         1.337664
 O        -3.790566         1.604934         1.929919
 C        -2.145658         0.178722         0.214695
 C        -2.481444         0.735125        -1.203691
 C        -2.178600         2.262266        -1.036285
 C        -1.665731         2.241782         0.382726
 H         0.617040        -0.146466        -0.215921
 H        -1.307445         0.029561         2.655013
 H        -0.901550         1.932124         2.739639
 H        -4.093478         0.852624         2.337515
 H        -2.177251        -0.864768         0.499102
 H        -1.976313         0.189326        -2.082200
 H        -3.548940         0.450249        -1.418833
 H        -1.542896         2.677941        -1.812042
 H        -3.114247         2.823224        -1.005001
 H        -1.223627         3.189788         0.831322
