19
Iteration:  1252
 O         0.430009         0.759540         0.136531
 C        -0.820486         1.028646         0.641247
 C        -1.278107         0.902664         2.256789
 C        -2.458934         1.273318         1.302035
 O        -3.737250         1.582922         1.796931
 C        -2.113073         0.322875         0.204051
 C        -2.622082         0.689488        -1.176626
 C        -2.267042         2.216283        -1.062806
 C        -1.618785         2.321492         0.423706
 H         0.383946        -0.249713         0.431808
 H        -1.278914        -0.200405         2.730235
 H        -0.993325         1.710877         2.973679
 H        -4.087174         0.766002         2.266772
 H        -2.206469        -0.834731         0.395024
 H        -2.015081         0.247867        -1.883514
 H        -3.691574         0.610353        -1.411151
 H        -1.487832         2.549272        -1.744408
 H        -3.150513         2.806254        -1.307170
 H        -1.409010         3.244132         0.857678
