19
Iteration:  1097
 O         0.535427         0.704384         0.095981
 C        -0.788787         0.981894         0.646741
 C        -1.260005         0.869128         2.157632
 C        -2.511413         1.240080         1.356788
 O        -3.915649         1.657107         1.862579
 C        -2.138614         0.334956         0.206096
 C        -2.497558         0.754516        -1.198387
 C        -2.236449         2.245577        -1.061523
 C        -1.713210         2.288964         0.462561
 H         0.623279        -0.237727        -0.106507
 H        -1.250304        -0.193494         2.683530
 H        -0.892531         1.515694         2.901844
 H        -4.074393         1.053227         2.535762
 H        -2.226097        -0.779592         0.392602
 H        -1.934385         0.224566        -1.931559
 H        -3.544509         0.628691        -1.359582
 H        -1.490258         2.636680        -1.736032
 H        -3.173290         2.761970        -1.077891
 H        -1.201935         3.210337         0.828668
