19
Iteration:  2589charge 0 multiplicity 1
 O         0.437242         0.777848         0.190782
 C        -0.787562         1.021498         0.755714
 C        -1.235641         0.867740         2.162666
 C        -2.485239         1.284647         1.285909
 O        -3.782104         1.627457         1.750357
 C        -2.115974         0.274007         0.279658
 C        -2.647291         0.675489        -1.094864
 C        -2.144302         2.171914        -1.109763
 C        -1.721319         2.279364         0.400577
 H         0.501469         0.960992        -0.716066
 H        -1.175363        -0.140062         2.607048
 H        -0.862284         1.591726         2.898594
 H        -4.149028         0.932072         2.174126
 H        -2.180956        -0.756497         0.588235
 H        -2.482829        -0.077733        -1.999017
 H        -3.720675         0.734485        -1.087283
 H        -1.316584         2.375815        -1.844895
 H        -2.887941         2.920940        -1.336420
 H        -1.555290         3.256822         0.812458
