19
Iteration:  3453charge 0 multiplicity 1
 O         0.466555         0.586998         0.199617
 C        -0.812512         0.988931         0.697071
 C        -1.298941         1.047818         2.153029
 C        -2.537528         1.419112         1.233545
 O        -3.755449         1.390733         1.961964
 C        -2.136227         0.256530         0.187350
 C        -2.563511         0.762607        -1.192931
 C        -2.179815         2.275285        -1.114777
 C        -1.732325         2.345606         0.396191
 H         1.179087         0.360179         0.873653
 H        -1.173350         0.030387         2.578368
 H        -0.798005         1.782427         2.782202
 H        -4.498033         1.364592         1.200679
 H        -2.135944        -0.792808         0.398414
 H        -2.243583         0.180258        -2.096393
 H        -3.714194         0.620287        -1.239140
 H        -1.460046         2.676075        -1.786875
 H        -3.120009         2.869321        -1.089089
 H        -1.281824         3.283846         0.793923
