19
Iteration:   866
 O         0.521243         0.735353         0.143236
 C        -0.748294         1.019496         0.621669
 C        -1.243767         0.910908         2.086883
 C        -2.539870         1.250866         1.281013
 O        -3.799188         1.560394         1.825598
 C        -2.115747         0.246134         0.212328
 C        -2.712983         0.753329        -1.092402
 C        -2.205667         2.334220        -1.012458
 C        -1.674863         2.278779         0.432598
 H         0.840589         0.014903         0.778697
 H        -1.215408        -0.179906         2.561292
 H        -0.852334         1.582700         2.895039
 H        -4.321792         0.838424         1.970875
 H        -2.134932        -0.869247         0.364961
 H        -2.311796         0.190652        -1.973207
 H        -3.848026         0.694303        -1.117648
 H        -1.442535         2.395508        -1.783209
 H        -3.016626         2.967581        -1.183628
 H        -1.351188         3.292206         0.934561
