19
Iteration:  1983
 O         0.508242         0.749657         0.150592
 C        -0.787650         0.952839         0.729539
 C        -1.228819         0.919331         2.167173
 C        -2.498432         1.314419         1.271609
 O        -3.733102         1.666386         1.706096
 C        -2.125038         0.248134         0.254542
 C        -2.535174         0.724527        -1.143026
 C        -2.407462         2.197635        -1.010588
 C        -1.723645         2.242337         0.394026
 H         0.845965        -0.088844         0.300833
 H        -1.189577        -0.049792         2.764508
 H        -1.090580         1.860720         2.773600
 H        -4.064704         0.993391         2.216605
 H        -2.353558        -0.768991         0.590218
 H        -1.882116         0.272053        -1.891030
 H        -3.517595         0.358514        -1.406653
 H        -1.731161         2.697611        -1.645929
 H        -3.291080         2.877644        -0.976848
 H        -1.447365         3.183103         0.910043
