19
Iteration:  2193
 O         0.514689         0.828652         0.179937
 C        -0.773616         1.010006         0.780469
 C        -1.210519         0.871884         2.164593
 C        -2.503158         1.342135         1.280489
 O        -3.809979         1.634509         1.729686
 C        -2.106246         0.199000         0.214166
 C        -2.703135         0.673806        -1.174448
 C        -2.254958         2.192049        -1.013326
 C        -1.657981         2.274316         0.382809
 H         1.023555        -0.095748         0.427795
 H        -1.343832        -0.255808         2.359842
 H        -0.821953         1.628601         2.869812
 H        -4.199247         0.808160         2.225047
 H        -2.369426        -0.722699         0.757731
 H        -2.471861         0.197379        -2.130176
 H        -3.731564         0.616507        -1.141201
 H        -1.639428         2.510641        -1.823506
 H        -2.972127         3.054221        -1.114654
 H        -1.229144         3.275504         0.704287
