19
Iteration:  2778
 O         0.522182         0.761237         0.281615
 C        -0.773421         0.949105         0.661789
 C        -1.264614         0.945037         2.112245
 C        -2.493024         1.335313         1.251212
 O        -3.803162         1.634034         1.762878
 C        -2.152462         0.141656         0.231116
 C        -2.634753         0.660497        -1.031798
 C        -2.224558         2.254945        -1.073866
 C        -1.691516         2.257470         0.380890
 H         0.695584         1.196077        -0.562770
 H        -1.131588         0.001668         2.678453
 H        -0.847997         1.760493         2.738345
 H        -4.165053         1.077809         2.365337
 H        -2.160168        -0.934232         0.464529
 H        -2.234595         0.181902        -2.024507
 H        -3.712595         0.638106        -1.169343
 H        -1.515846         2.479724        -1.875257
 H        -3.208081         2.744981        -1.223442
 H        -1.407065         3.176360         0.832076
