19
Iteration:  1589charge 0 multiplicity 1
 O         0.352262         0.718813         0.045455
 C        -0.887837         0.938178         0.680498
 C        -1.195634         1.016154         2.188157
 C        -2.563247         1.320264         1.331969
 O        -3.849640         1.673445         1.903715
 C        -2.075971         0.174775         0.211327
 C        -2.487685         0.682005        -1.211643
 C        -2.184873         2.199963        -1.036661
 C        -1.682405         2.234890         0.408834
 H         1.127880         1.117016         0.590986
 H        -1.161489        -0.002283         2.628359
 H        -0.799864         1.897247         2.717572
 H        -4.131612         0.869504         2.296403
 H        -2.139080        -0.807446         0.507017
 H        -1.775447         0.195144        -1.905216
 H        -3.468131         0.357966        -1.521195
 H        -1.446081         2.512882        -1.748580
 H        -3.064135         2.831761        -1.189646
 H        -1.261696         3.134334         0.873550
