19
Iteration:  4052
 O         0.558418         0.744020         0.256275
 C        -0.799961         1.042277         0.682511
 C        -1.250415         0.966628         2.122620
 C        -2.526375         1.229464         1.346689
 O        -3.846998         1.680260         1.688465
 C        -2.148585         0.211554         0.246199
 C        -2.585217         0.729693        -1.145069
 C        -2.260562         2.184656        -0.978920
 C        -1.660451         2.196057         0.406243
 H         0.420341         0.373646        -0.556951
 H        -0.955598         0.034081         2.625759
 H        -0.835054         1.807562         2.609526
 H        -4.328579         0.888096         1.970191
 H        -2.177734        -0.843791         0.663097
 H        -1.943190         0.271486        -1.827712
 H        -3.686062         0.588997        -1.330465
 H        -1.594055         2.481788        -1.764097
 H        -3.117740         2.838210        -1.177867
 H        -1.382260         3.228047         0.823633
