19
Iteration:  4949
 O         0.498281         0.790661         0.343314
 C        -0.824238         1.073909         0.659059
 C        -1.293747         1.104756         2.154512
 C        -2.477472         1.335166         1.315838
 O        -3.742207         1.641958         1.827342
 C        -2.046327         0.249851         0.344373
 C        -2.587683         0.543885        -1.110148
 C        -2.297173         2.037459        -1.195727
 C        -1.768785         2.305184         0.234248
 H         0.396190        -0.059334        -0.166943
 H        -1.291460         0.213304         2.727347
 H        -0.879643         2.006343         2.641976
 H        -4.216450         0.788423         1.952439
 H        -1.851834        -0.773523         0.769929
 H        -1.975694        -0.030722        -1.783251
 H        -3.559751         0.285194        -1.525550
 H        -1.491853         2.259893        -1.928888
 H        -3.213524         2.510664        -1.511745
 H        -1.463783         3.264486         0.587820
