19
Iteration:  1055
 O         0.505527         0.845282         0.113077
 C        -0.818116         0.873577         0.658390
 C        -1.230816         0.918652         2.181371
 C        -2.502314         1.231556         1.320840
 O        -3.757318         1.635929         1.668056
 C        -2.128746         0.215134         0.189050
 C        -2.736837         0.856512        -1.097796
 C        -2.228520         2.241306        -0.951592
 C        -1.580611         2.144241         0.441985
 H         0.986868         0.230418         0.823920
 H        -1.107283         0.090416         2.988086
 H        -0.910597         1.747696         2.772192
 H        -4.496230         1.010631         1.721649
 H        -2.338942        -0.907577         0.379808
 H        -2.500723         0.315617        -2.008862
 H        -3.869939         0.741845        -1.065532
 H        -1.608874         2.556980        -1.730963
 H        -3.065981         2.875328        -0.909985
 H        -1.338996         3.048654         0.923292
