19
Iteration:  3714
 O         0.440899         0.622009         0.207799
 C        -0.804636         0.975535         0.659594
 C        -1.152228         1.014237         2.044765
 C        -2.605282         1.243550         1.337028
 O        -3.810899         1.576812         1.852316
 C        -2.053795         0.206169         0.210409
 C        -2.554151         0.792933        -1.197511
 C        -2.240956         2.323408        -1.028782
 C        -1.760908         2.264743         0.444500
 H         0.881039         0.216767         0.909788
 H        -1.082356         0.074017         2.706228
 H        -0.755307         1.682849         2.807012
 H        -4.528019         1.170000         1.322749
 H        -2.155590        -0.893489         0.348088
 H        -1.877637         0.448857        -2.008042
 H        -3.621099         0.691514        -1.584601
 H        -1.349491         2.561680        -1.595840
 H        -3.161474         2.998028        -1.236032
 H        -1.367894         3.195581         1.039993
