19
Iteration:  3573
 O         0.510863         0.610360         0.172450
 C        -0.856452         0.969065         0.640107
 C        -1.246059         0.960150         2.105269
 C        -2.515585         1.282886         1.339751
 O        -3.868789         1.443482         1.857297
 C        -2.195561         0.280266         0.282411
 C        -2.512917         0.797752        -1.158507
 C        -2.179472         2.290609        -1.020118
 C        -1.637911         2.279784         0.387691
 H         0.966426         1.401015         0.029528
 H        -1.131804         0.036306         2.766066
 H        -0.919664         1.869414         2.615328
 H        -4.387832         1.964948         1.315093
 H        -2.436693        -0.758971         0.474724
 H        -2.010963         0.122131        -1.884925
 H        -3.579628         0.653211        -1.530581
 H        -1.421750         2.591525        -1.713429
 H        -3.161206         2.869861        -1.097043
 H        -1.460020         3.221768         0.946331
