19
Iteration:   365charge 0 multiplicity 1
 O         0.501929         0.750704         0.135524
 C        -0.816096         0.972219         0.606568
 C        -1.288566         0.918754         2.101651
 C        -2.566266         1.271420         1.343695
 O        -3.843529         1.488312         1.840183
 C        -2.188177         0.252954         0.269312
 C        -2.613641         0.739995        -1.113173
 C        -2.115127         2.233826        -0.999819
 C        -1.670874         2.236818         0.419977
 H         0.941678         1.406867        -0.334333
 H        -1.105523        -0.161044         2.460209
 H        -0.943851         1.689333         2.843543
 H        -3.952742         2.403457         1.798553
 H        -2.319904        -0.822365         0.666224
 H        -2.035324         0.158138        -1.899846
 H        -3.684411         0.480177        -1.274522
 H        -1.280989         2.338046        -1.647307
 H        -2.730796         3.090438        -1.252999
 H        -1.322571         3.243477         0.804411
