19
Iteration:  3927charge 0 multiplicity 1
 O         0.465168         0.817253         0.077441
 C        -0.822058         0.943186         0.634629
 C        -1.256909         0.835818         2.145226
 C        -2.495985         1.375214         1.380385
 O        -3.861149         1.677415         1.725005
 C        -2.130247         0.203862         0.259957
 C        -2.550012         0.641057        -1.108916
 C        -2.217458         2.253735        -0.981140
 C        -1.666405         2.274655         0.500088
 H         0.978142         0.145878         0.433122
 H        -1.281795        -0.119540         2.665637
 H        -0.588328         1.504738         2.804449
 H        -4.387440         1.072776         1.162286
 H        -2.436458        -0.820332         0.401937
 H        -1.925181         0.113715        -1.898504
 H        -3.587730         0.501053        -1.324863
 H        -1.330026         2.587019        -1.583386
 H        -3.145149         2.795280        -1.086004
 H        -1.293305         3.161092         0.932229
