19
Iteration:   882
 O         0.407209         0.788198         0.247412
 C        -0.908946         0.986201         0.636754
 C        -1.221755         0.931682         2.101135
 C        -2.427413         1.208161         1.301680
 O        -3.654037         1.589690         1.733660
 C        -2.098461         0.193806         0.115203
 C        -2.735112         0.777660        -1.132840
 C        -2.220985         2.256569        -0.968241
 C        -1.684473         2.267051         0.446686
 H         0.635320        -0.013459         0.668279
 H        -1.069592         0.037495         2.543052
 H        -0.876596         1.841244         2.545888
 H        -4.013060         0.775179         2.114604
 H        -2.078398        -0.876377         0.448890
 H        -2.436634         0.372014        -2.095355
 H        -3.854285         0.760251        -0.962936
 H        -1.299860         2.556116        -1.518358
 H        -3.035354         3.095889        -1.069882
 H        -1.452779         3.131664         0.927877
