19
Iteration:   358
 O         0.477289         0.716444         0.163652
 C        -0.819031         1.019789         0.654094
 C        -1.195530         0.932156         2.168494
 C        -2.545601         1.234119         1.328048
 O        -3.827561         1.510979         1.860166
 C        -2.172183         0.191270         0.243882
 C        -2.637592         0.749878        -1.158700
 C        -2.122986         2.224710        -1.058195
 C        -1.738434         2.264378         0.427534
 H         0.834634         1.413638        -0.357329
 H        -1.312050        -0.118865         2.465855
 H        -0.937207         1.626377         2.941810
 H        -3.854976         2.417586         1.837152
 H        -2.241017        -0.897178         0.389719
 H        -1.959595         0.339800        -1.885929
 H        -3.714738         0.714747        -1.447699
 H        -1.235063         2.364900        -1.753456
 H        -2.813784         2.998798        -1.443242
 H        -1.389351         3.266141         0.928076
