19
Iteration:   868
 O         0.498215         0.736864         0.162827
 C        -0.756625         1.027388         0.614229
 C        -1.235806         0.913956         2.080107
 C        -2.537495         1.235700         1.276275
 O        -3.771600         1.564386         1.813268
 C        -2.114495         0.246618         0.212754
 C        -2.721100         0.742288        -1.099457
 C        -2.193437         2.337561        -0.998332
 C        -1.684458         2.289827         0.439443
 H         0.881329        -0.021004         0.770972
 H        -1.231601        -0.109522         2.561276
 H        -0.882111         1.571072         2.829118
 H        -4.364049         0.797656         2.009580
 H        -2.060284        -0.908035         0.360870
 H        -2.361661         0.161818        -1.991120
 H        -3.899010         0.651443        -1.111149
 H        -1.445366         2.428931        -1.781217
 H        -2.992108         3.045623        -1.166351
 H        -1.345050         3.226485         0.905425
