19
Iteration:  4987charge 0 multiplicity 1
 O         0.578129         0.884976         0.181258
 C        -0.814064         0.969547         0.621689
 C        -1.264927         1.186342         2.203638
 C        -2.558175         1.352152         1.309771
 O        -3.842987         1.634865         1.722382
 C        -2.122466         0.152328         0.406273
 C        -2.579366         0.571857        -1.016046
 C        -2.306503         2.065892        -1.126426
 C        -1.660679         2.164855         0.349140
 H         0.958664        -0.076132        -0.121402
 H        -1.306748         0.325436         2.947704
 H        -0.799004         2.059974         2.660679
 H        -4.503297         1.212095         1.132742
 H        -1.915311        -0.871096         0.755883
 H        -1.850431        -0.033722        -1.629803
 H        -3.673426         0.383910        -1.144736
 H        -1.574047         2.344768        -1.869370
 H        -3.126292         2.752732        -1.381828
 H        -1.297486         3.213401         0.530134
