19
Iteration:  1083
 O         0.500596         0.763806         0.122976
 C        -0.793830         0.970021         0.627196
 C        -1.250153         0.776861         2.100472
 C        -2.536596         1.396779         1.322975
 O        -3.801677         1.608470         1.738917
 C        -2.136752         0.257783         0.272334
 C        -2.602492         0.757857        -1.065601
 C        -2.244837         2.260165        -0.981893
 C        -1.660145         2.298999         0.411178
 H         0.729450        -0.201184         0.397933
 H        -1.423005        -0.274580         2.337075
 H        -0.735151         1.370267         2.920714
 H        -4.147535         0.851874         2.325785
 H        -2.288346        -0.745475         0.572505
 H        -2.006033         0.271217        -1.871889
 H        -3.615299         0.478754        -1.299836
 H        -1.467455         2.541615        -1.793247
 H        -3.103261         2.985049        -1.198288
 H        -1.425414         3.331693         0.883306
