19
Iteration:  4403charge 0 multiplicity 1
 O         0.545267         0.708436         0.380924
 C        -0.818274         1.050254         0.628659
 C        -1.187420         1.171016         2.096196
 C        -2.529843         1.389376         1.349978
 O        -3.892887         1.494570         1.904678
 C        -2.107205         0.257479         0.362687
 C        -2.559968         0.537861        -1.077540
 C        -2.291293         2.106306        -1.211649
 C        -1.664837         2.295778         0.184426
 H         0.773256         0.430153        -0.555685
 H        -1.062862         0.141710         2.539858
 H        -0.719209         1.948352         2.766891
 H        -4.398406         1.814243         1.115423
 H        -2.213246        -0.812414         0.669145
 H        -2.043464        -0.176927        -1.680995
 H        -3.671820         0.357982        -0.988087
 H        -1.714623         2.490200        -1.951247
 H        -3.211228         2.697611        -1.467700
 H        -1.267768         3.337473         0.317918
