19
Iteration:  4842charge 0 multiplicity 1
 O         0.484943         0.765703         0.231121
 C        -0.840327         0.992606         0.698361
 C        -1.224509         1.152433         2.170312
 C        -2.499361         1.321299         1.263517
 O        -3.748140         1.585875         1.771726
 C        -2.060804         0.179175         0.319892
 C        -2.586308         0.543086        -1.047664
 C        -2.286957         2.085669        -1.171484
 C        -1.717724         2.228454         0.275792
 H         1.048351         1.274648         0.926093
 H        -1.151532         0.283490         2.839539
 H        -0.973659         2.079396         2.689944
 H        -4.308222         2.154810         1.221086
 H        -2.274499        -0.780386         0.813225
 H        -2.072939        -0.018654        -1.821582
 H        -3.728591         0.348078        -0.978292
 H        -1.687583         2.258493        -2.029340
 H        -3.255537         2.627278        -1.271679
 H        -1.784223         3.281438         0.767943
