19
Iteration:  3731charge 0 multiplicity 1
 O         0.501305         0.676985         0.239108
 C        -0.889673         0.971635         0.609876
 C        -1.336535         0.956464         2.178024
 C        -2.487096         1.280643         1.294715
 O        -3.695494         1.508793         1.905392
 C        -2.214196         0.251775         0.143988
 C        -2.545936         0.802926        -1.222317
 C        -2.220223         2.278023        -1.003427
 C        -1.663176         2.321699         0.341815
 H         0.895292         0.228791         0.964946
 H        -1.271445         0.043599         2.725803
 H        -0.957958         1.891878         2.667890
 H        -4.368945         1.050947         1.318519
 H        -2.327605        -0.798308         0.428831
 H        -2.049221         0.203223        -1.975665
 H        -3.555588         0.450163        -1.353741
 H        -1.499907         2.678415        -1.751512
 H        -3.069438         2.910992        -1.043440
 H        -1.400698         3.185621         0.905482
