19
Iteration:   343
 O         0.376274         0.684419         0.236926
 C        -0.828013         0.994086         0.756590
 C        -1.220608         0.889569         2.186173
 C        -2.518543         1.250052         1.320994
 O        -3.742219         1.519611         1.873213
 C        -2.132325         0.238529         0.129543
 C        -2.521074         0.760263        -1.243892
 C        -2.174800         2.228285        -1.115720
 C        -1.784866         2.271952         0.425384
 H         0.602251         1.365514        -0.530178
 H        -1.021830        -0.041242         2.816622
 H        -0.700726         1.804160         2.620024
 H        -3.830286         2.558519         2.158298
 H        -2.059641        -0.890667         0.364566
 H        -2.340993         0.073479        -2.110960
 H        -3.653103         0.643230        -1.172231
 H        -1.347630         2.579020        -1.668813
 H        -2.992189         2.893806        -1.358615
 H        -1.639473         3.315619         0.926819
