19
Iteration:  2727charge 0 multiplicity 1
 O         0.478651         0.848852         0.195942
 C        -0.788536         0.917828         0.681223
 C        -1.287482         0.958318         2.122054
 C        -2.517558         1.331527         1.262171
 O        -3.809367         1.655524         1.775748
 C        -2.154471         0.221443         0.263938
 C        -2.553745         0.664206        -1.098510
 C        -2.182753         2.155180        -0.999896
 C        -1.647463         2.150501         0.385034
 H         0.487696         1.223292        -0.768934
 H        -1.343043         0.004622         2.702011
 H        -0.781143         1.740173         2.713393
 H        -4.323468         0.887628         2.217559
 H        -2.453249        -0.758569         0.669476
 H        -2.351353         0.226989        -2.027922
 H        -3.696875         0.612294        -1.183380
 H        -1.465414         2.394075        -1.780307
 H        -3.022839         2.886378        -0.962856
 H        -1.167748         3.102221         0.793999
