19
Iteration:   409
 O         0.442819         0.629231         0.099155
 C        -0.794237         1.035830         0.660544
 C        -1.243657         0.926840         2.201592
 C        -2.493183         1.211838         1.350477
 O        -3.790081         1.520848         1.621449
 C        -2.104752         0.263811         0.278279
 C        -2.619919         0.744558        -1.070040
 C        -2.286865         2.275664        -0.961763
 C        -1.677271         2.251279         0.437718
 H         1.004805         1.373803         0.055322
 H        -1.140857        -0.091633         2.759477
 H        -0.980720         1.894995         2.697741
 H        -3.847235         2.332237         2.137648
 H        -2.115091        -0.907165         0.418624
 H        -2.062618         0.237823        -1.912414
 H        -3.732586         0.664147        -1.245820
 H        -1.483970         2.581829        -1.598373
 H        -3.072262         2.969163        -1.278749
 H        -1.377092         3.184060         0.979231
