19
Iteration:  4457
 O         0.478537         0.854147         0.180297
 C        -0.843651         1.006166         0.711357
 C        -1.227294         1.053383         2.180353
 C        -2.572523         1.360144         1.359535
 O        -3.867941         1.659014         1.786744
 C        -2.075069         0.138138         0.369851
 C        -2.552182         0.541108        -1.083563
 C        -2.199996         1.990534        -1.156083
 C        -1.711130         2.246191         0.346166
 H         0.628248         1.058623        -0.800685
 H        -1.158691         0.051618         2.667403
 H        -0.807724         1.969211         2.666357
 H        -4.106935         2.631627         1.781892
 H        -1.920128        -0.917513         0.680913
 H        -1.900523        -0.001050        -1.732994
 H        -3.524221         0.007703        -1.310813
 H        -1.359495         2.061463        -1.923776
 H        -3.004753         2.732283        -1.458665
 H        -1.437783         3.340442         0.547344
