19
Iteration:  2218charge 0 multiplicity 1
 O         0.478711         0.909735         0.112664
 C        -0.886495         0.962684         0.586516
 C        -1.280414         0.907537         2.140596
 C        -2.470068         1.234636         1.390895
 O        -3.764327         1.645415         1.797995
 C        -2.190274         0.202251         0.229290
 C        -2.630594         0.681825        -1.036972
 C        -2.107205         2.194356        -1.048976
 C        -1.681483         2.267394         0.421182
 H         1.034325         0.090858         0.453141
 H        -1.437647        -0.129875         2.533987
 H        -1.064089         1.759539         2.760994
 H        -4.444667         0.852526         1.771588
 H        -2.361436        -0.831632         0.531731
 H        -2.230436         0.065376        -1.875314
 H        -3.761217         0.589363        -1.224912
 H        -1.200811         2.352859        -1.778485
 H        -2.693641         2.990982        -1.513776
 H        -1.309009         3.157335         0.890245
