19
Iteration:  3074charge 0 multiplicity 1
 O         0.507637         0.598254         0.334196
 C        -0.859249         1.026625         0.654080
 C        -1.261637         0.959408         2.048734
 C        -2.519940         1.286023         1.291486
 O        -3.844038         1.574098         1.864285
 C        -2.010734         0.228455         0.208563
 C        -2.605721         0.722026        -1.158779
 C        -2.217832         2.274246        -1.095391
 C        -1.702177         2.353783         0.410914
 H         0.644553         0.808177        -0.660835
 H        -1.107082        -0.125025         2.350602
 H        -0.897572         1.696109         2.808723
 H        -4.122291         0.771154         2.215957
 H        -1.901700        -0.813413         0.580584
 H        -2.328279         0.096274        -2.056581
 H        -3.688595         0.667488        -1.030700
 H        -1.435159         2.721658        -1.839169
 H        -3.023320         3.028382        -1.326772
 H        -1.628160         3.357789         0.786653
