19
Iteration:  2460
 O         0.527216         0.785035         0.174024
 C        -0.816267         0.958862         0.635109
 C        -1.245896         0.894914         2.121500
 C        -2.526737         1.311904         1.342043
 O        -3.847479         1.726309         1.738903
 C        -2.086341         0.167273         0.244205
 C        -2.522388         0.695758        -1.154571
 C        -2.281740         2.197593        -0.975354
 C        -1.705395         2.254346         0.410188
 H         0.624171        -0.137133        -0.314909
 H        -1.217869        -0.033073         2.816776
 H        -0.801731         1.794197         2.692125
 H        -4.236756         0.952708         2.365020
 H        -2.143076        -0.890067         0.487198
 H        -1.999840         0.295773        -1.998862
 H        -3.564979         0.565627        -1.180816
 H        -1.542532         2.770738        -1.592156
 H        -3.238241         2.701979        -0.834320
 H        -1.533846         3.214834         0.781087
