19
Iteration:  2539charge 0 multiplicity 1
 O         0.440231         0.626812         0.249979
 C        -0.852228         1.047787         0.688546
 C        -1.209410         1.069774         2.207999
 C        -2.483988         1.257140         1.328320
 O        -3.747731         1.553256         1.782629
 C        -2.158827         0.212077         0.249628
 C        -2.574454         0.766243        -1.156198
 C        -2.234637         2.188761        -1.101498
 C        -1.706288         2.288375         0.364258
 H         0.725428         0.973055        -0.649690
 H        -1.144824         0.017009         2.531780
 H        -0.850607         1.883026         2.885079
 H        -4.235035         0.733832         2.237813
 H        -2.243417        -0.891830         0.369206
 H        -2.135833         0.253198        -1.933468
 H        -3.658293         0.625207        -1.400716
 H        -1.465967         2.604823        -1.784987
 H        -3.121887         2.877035        -1.210743
 H        -1.309004         3.253926         0.778382
