19
Iteration:   807
 O         0.422410         0.761879        -0.005795
 C        -0.818532         0.950616         0.684638
 C        -1.223228         0.912365         2.176760
 C        -2.549463         1.177922         1.378433
 O        -3.773704         1.706315         1.834588
 C        -2.091533         0.196230         0.203305
 C        -2.463016         0.735462        -1.178920
 C        -2.223251         2.302548        -0.953706
 C        -1.779032         2.236164         0.498436
 H         0.476390        -0.238245         0.064459
 H        -1.155767        -0.049500         2.701863
 H        -0.858530         1.808516         2.823619
 H        -4.594721         1.066050         1.778501
 H        -2.061472        -0.841437         0.355809
 H        -1.842332         0.279371        -1.927399
 H        -3.436717         0.627192        -1.539025
 H        -1.434782         2.821875        -1.524183
 H        -3.152540         2.859137        -1.282192
 H        -1.539099         3.222262         0.890858
