19
Iteration:  3569charge 0 multiplicity 1
 O         0.462332         0.610641         0.174764
 C        -0.845647         0.965398         0.606151
 C        -1.233040         0.955325         2.161714
 C        -2.456599         1.274274         1.335087
 O        -3.864798         1.470075         1.846730
 C        -2.175390         0.248911         0.255037
 C        -2.511060         0.792455        -1.169611
 C        -2.169990         2.300072        -0.982809
 C        -1.707747         2.276958         0.380589
 H         0.955438         1.491767        -0.032905
 H        -1.250983         0.060342         2.735275
 H        -0.881561         1.879376         2.704255
 H        -4.459025         2.057078         1.207127
 H        -2.287257        -0.822378         0.488881
 H        -2.039440         0.186237        -1.910137
 H        -3.526543         0.531581        -1.411541
 H        -1.336703         2.601226        -1.667502
 H        -3.065378         2.899314        -1.056538
 H        -1.474739         3.221551         0.881345
