19
Iteration:  4284charge 0 multiplicity 1
 O         0.528175         0.714617         0.326598
 C        -0.799909         0.991593         0.576207
 C        -1.287455         1.222801         2.087993
 C        -2.544192         1.276387         1.327403
 O        -3.810697         1.539642         1.956224
 C        -2.152575         0.157886         0.316575
 C        -2.568829         0.569603        -1.168747
 C        -2.235013         2.036773        -1.090139
 C        -1.678370         2.323142         0.279770
 H         0.828652         1.094021        -0.419803
 H        -1.173901         0.418232         2.827180
 H        -0.960996         2.174003         2.556351
 H        -4.294501         2.069493         1.291094
 H        -2.178423        -0.927358         0.540872
 H        -1.863541         0.165342        -1.857497
 H        -3.633753         0.541783        -1.458252
 H        -1.611978         2.504722        -1.964136
 H        -3.028263         2.815277        -1.363330
 H        -1.364981         3.298621         0.701186
