19
Iteration:   674charge 0 multiplicity 1
 O         0.404994         0.750415        -0.041354
 C        -0.811876         0.941642         0.665813
 C        -1.218165         0.889802         2.138419
 C        -2.585110         1.247212         1.275743
 O        -3.941706         1.510391         1.789042
 C        -2.125507         0.251122         0.281803
 C        -2.542047         0.747843        -1.017092
 C        -2.136355         2.268827        -0.941320
 C        -1.633118         2.253650         0.462375
 H         1.233770         0.892296         0.441452
 H        -1.268885        -0.127090         2.578708
 H        -0.653154         1.731338         2.696317
 H        -3.891896         2.581035         1.781435
 H        -2.144182        -0.860622         0.492126
 H        -2.030790         0.281177        -1.846434
 H        -3.617702         0.591739        -1.182495
 H        -1.330584         2.466176        -1.659365
 H        -2.935890         3.081486        -1.125958
 H        -1.159538         3.151563         0.777137
