19
Iteration:  1935charge 0 multiplicity 1
 O         0.376253         0.883168         0.085235
 C        -0.843890         0.933230         0.701460
 C        -1.239854         0.966295         2.211785
 C        -2.559272         1.269900         1.283366
 O        -3.730306         1.704503         1.913783
 C        -2.240228         0.140689         0.210051
 C        -2.427596         0.671304        -1.229950
 C        -2.126036         2.179033        -1.089721
 C        -1.791830         2.248874         0.401352
 H         0.896168         0.027391         0.180502
 H        -1.397893        -0.062507         2.709371
 H        -0.657042         1.780869         2.822392
 H        -4.041739         0.949093         2.587039
 H        -2.472475        -0.925294         0.476847
 H        -1.693911         0.109317        -1.848963
 H        -3.525783         0.511249        -1.481286
 H        -1.173978         2.617421        -1.676628
 H        -3.041208         2.767169        -1.348756
 H        -1.486880         3.099213         1.040086
