19
Iteration:  2314
 O         0.481243         0.755313         0.238845
 C        -0.803336         0.930232         0.609199
 C        -1.262118         1.040507         2.094812
 C        -2.478422         1.262242         1.308654
 O        -3.763570         1.687955         1.718686
 C        -2.091781         0.130445         0.207686
 C        -2.553125         0.728678        -1.136173
 C        -2.377097         2.248429        -0.891967
 C        -1.701447         2.208667         0.385180
 H         0.583482        -0.127963         0.092435
 H        -1.343732         0.041875         2.707866
 H        -0.801856         1.770337         2.773566
 H        -4.022871         1.115110         2.468409
 H        -2.217803        -0.975607         0.188739
 H        -1.673842         0.575137        -1.819149
 H        -3.420695         0.334930        -1.567399
 H        -1.780910         2.627144        -1.721138
 H        -3.274877         2.936883        -0.819079
 H        -1.319939         3.201487         0.753801
