19
Iteration:  2520charge 0 multiplicity 1
 O         0.493864         0.635564         0.266106
 C        -0.820227         1.021482         0.604224
 C        -1.276197         0.897827         2.038138
 C        -2.523929         1.356185         1.269731
 O        -3.789112         1.667243         1.788069
 C        -2.039469         0.269813         0.225413
 C        -2.556854         0.600012        -1.095669
 C        -2.297726         2.240372        -0.984606
 C        -1.711196         2.330773         0.442720
 H         0.452030         0.767324        -0.673051
 H        -1.248096        -0.014016         2.595039
 H        -0.920648         1.711118         2.644905
 H        -4.123290         0.804220         2.191159
 H        -1.999797        -0.756774         0.683131
 H        -1.929260         0.199230        -1.914835
 H        -3.561586         0.084192        -1.290649
 H        -1.546434         2.656546        -1.670587
 H        -3.159008         2.942319        -1.139677
 H        -1.529102         3.341628         1.021317
