19
Iteration:   354charge 0 multiplicity 1
 O         0.456548         0.692523         0.183750
 C        -0.821113         1.044880         0.691842
 C        -1.171001         0.924129         2.180925
 C        -2.519120         1.223474         1.317193
 O        -3.813133         1.514603         1.867155
 C        -2.163990         0.177659         0.217402
 C        -2.631159         0.762106        -1.174816
 C        -2.131359         2.225739        -1.099747
 C        -1.764837         2.281253         0.430746
 H         0.690575         1.496929        -0.387052
 H        -1.345463        -0.112882         2.619746
 H        -0.842688         1.639208         2.986236
 H        -3.875016         2.562931         1.906822
 H        -2.189759        -0.970468         0.275106
 H        -1.997816         0.302540        -1.995198
 H        -3.687968         0.790432        -1.503005
 H        -1.254218         2.358179        -1.674332
 H        -2.918807         2.879572        -1.457717
 H        -1.444703         3.228341         0.970255
