19
Iteration:  4014
 O         0.512880         0.748753         0.352200
 C        -0.845742         0.996431         0.665685
 C        -1.344408         0.954667         2.116072
 C        -2.576287         1.345936         1.294362
 O        -3.759057         1.456690         1.897362
 C        -2.094364         0.240372         0.192919
 C        -2.578645         0.751005        -1.199804
 C        -2.238159         2.189821        -1.116200
 C        -1.651261         2.308511         0.315686
 H         0.515003        -0.072082        -0.257489
 H        -1.350806        -0.043649         2.587973
 H        -0.791016         1.730210         2.779791
 H        -3.823504         2.204505         2.584741
 H        -2.296830        -0.771982         0.484975
 H        -2.152718         0.294694        -2.160491
 H        -3.592152         0.489533        -1.443659
 H        -1.378078         2.448745        -1.821070
 H        -3.035074         2.936090        -1.277091
 H        -1.208373         3.227765         0.622962
