19
Iteration:  2257charge 0 multiplicity 1
 O         0.346750         0.826808         0.062641
 C        -0.866806         0.932270         0.645994
 C        -1.254986         0.990235         2.190276
 C        -2.534448         1.263393         1.412428
 O        -3.840928         1.589820         1.859512
 C        -2.130077         0.203589         0.278624
 C        -2.497827         0.685024        -1.160705
 C        -2.101712         2.257719        -1.085582
 C        -1.638830         2.304734         0.397487
 H         0.616998        -0.155735         0.236762
 H        -1.087460        -0.005263         2.700915
 H        -0.811693         1.884697         2.686873
 H        -4.360715         0.776827         1.857955
 H        -2.325651        -0.865761         0.516822
 H        -1.979446         0.084269        -1.930590
 H        -3.589837         0.523605        -1.325136
 H        -1.291859         2.499421        -1.750656
 H        -2.961568         2.957707        -1.357548
 H        -1.010351         3.176621         0.779102
