19
Iteration:  2871
 O         0.434000         0.878384         0.187782
 C        -0.862423         0.899604         0.682400
 C        -1.260519         0.952358         2.106063
 C        -2.491281         1.321891         1.368276
 O        -3.815310         1.700358         1.781755
 C        -2.135595         0.185685         0.284533
 C        -2.470233         0.647196        -1.139951
 C        -2.237199         2.197421        -0.982058
 C        -1.648187         2.185235         0.364162
 H         0.359894         0.435559        -0.698592
 H        -1.241689         0.050064         2.768128
 H        -0.839051         1.863738         2.607996
 H        -4.219938         0.763656         1.683856
 H        -2.343791        -0.864782         0.513406
 H        -1.952945         0.110330        -1.948866
 H        -3.573696         0.481452        -1.431587
 H        -1.633536         2.723670        -1.746259
 H        -3.204812         2.631863        -0.845878
 H        -0.981395         3.057652         0.701755
