19
Iteration:  1441charge 0 multiplicity 1
 O         0.314729         0.732770         0.017524
 C        -0.890336         0.930964         0.676298
 C        -1.179348         1.055190         2.180349
 C        -2.569450         1.254109         1.283301
 O        -3.774193         1.637971         1.862220
 C        -2.194503         0.189864         0.228547
 C        -2.393880         0.606045        -1.209707
 C        -2.169290         2.247586        -1.020292
 C        -1.728776         2.256017         0.483413
 H         1.106361         0.815329         0.490365
 H        -1.048877         0.367773         2.984001
 H        -0.699810         1.941319         2.503996
 H        -4.133646         0.982128         2.596469
 H        -2.432209        -0.920315         0.501780
 H        -1.637192         0.355791        -1.886779
 H        -3.417305         0.426614        -1.548142
 H        -1.428157         2.761674        -1.640496
 H        -3.105485         2.773433        -1.158360
 H        -1.353989         3.259134         0.919451
