19
Iteration:   147charge 0 multiplicity 1
 O         0.486073         0.674870         0.175131
 C        -0.808331         0.954387         0.677099
 C        -1.222475         0.844687         2.148964
 C        -2.501553         1.369515         1.377010
 O        -3.829220         1.448301         1.705143
 C        -2.215547         0.311152         0.270211
 C        -2.550725         0.762163        -1.219913
 C        -2.339709         2.289145        -1.024422
 C        -1.588212         2.224185         0.430174
 H         0.908040         1.653152         0.089184
 H        -1.215459        -0.087845         2.695335
 H        -0.834264         1.630067         2.807115
 H        -4.019044         1.841747         2.696312
 H        -2.560911        -0.703797         0.697708
 H        -1.786694         0.487090        -1.948188
 H        -3.575277         0.453647        -1.421557
 H        -1.633929         2.530939        -1.925054
 H        -3.110694         3.093511        -1.031836
 H        -0.965297         3.226710         0.651408
