19
Iteration:  4780
 O         0.442465         0.852346         0.175153
 C        -0.866338         1.028763         0.688709
 C        -1.262252         1.143611         2.203942
 C        -2.505580         1.441681         1.258429
 O        -3.795441         1.613238         1.778427
 C        -2.111380         0.230095         0.393267
 C        -2.548255         0.468393        -1.111038
 C        -2.191200         1.997519        -1.083117
 C        -1.703651         2.284366         0.296424
 H         0.453612        -0.145477        -0.091320
 H        -1.197123         0.159393         2.803333
 H        -0.881971         2.067901         2.622310
 H        -4.098801         0.730211         2.014827
 H        -2.131320        -0.734812         0.924246
 H        -1.768563         0.063166        -1.810131
 H        -3.506723         0.191427        -1.475748
 H        -1.536889         2.261172        -1.953422
 H        -2.941033         2.773302        -1.459823
 H        -1.480255         3.239868         0.721573
