19
Iteration:  4305
 O         0.472463         0.736311         0.259769
 C        -0.791038         1.009411         0.769111
 C        -1.268414         1.086271         2.156996
 C        -2.511061         1.423783         1.269125
 O        -3.813314         1.520948         1.853715
 C        -2.103223         0.261733         0.288665
 C        -2.498924         0.491054        -1.091795
 C        -2.250959         2.088345        -1.177018
 C        -1.735342         2.257686         0.247631
 H         0.451226         1.212068        -0.636768
 H        -1.352258         0.126934         2.711970
 H        -0.991362         1.869254         2.878453
 H        -3.921463         2.459234         2.086929
 H        -2.101608        -0.799730         0.585479
 H        -1.953626         0.050998        -1.881401
 H        -3.590951         0.294391        -1.091287
 H        -1.566870         2.354986        -2.022040
 H        -3.163583         2.780718        -1.288845
 H        -1.444895         3.279878         0.606525
