19
Iteration:  3864charge 0 multiplicity 1
 O         0.464677         0.680809         0.219256
 C        -0.775823         0.929580         0.675891
 C        -1.284658         0.985584         2.111319
 C        -2.523719         1.317160         1.301728
 O        -3.853557         1.547289         1.821901
 C        -2.065406         0.195601         0.125515
 C        -2.547651         0.767596        -1.215369
 C        -2.241450         2.278922        -1.008503
 C        -1.746519         2.273822         0.396070
 H         0.835026         0.042344         0.824907
 H        -1.158721         0.051340         2.607928
 H        -0.750181         1.771166         2.678230
 H        -3.672516         1.746244         2.811509
 H        -2.305638        -0.892774         0.308968
 H        -2.005632         0.390521        -2.065022
 H        -3.640864         0.549031        -1.090083
 H        -1.492925         2.689404        -1.712140
 H        -3.057085         2.963911        -1.145628
 H        -1.311488         3.231525         0.784792
