19
Iteration:  3480
 O         0.458848         0.615599         0.208716
 C        -0.789843         1.046613         0.591344
 C        -1.337112         1.017839         2.130442
 C        -2.525147         1.282940         1.257934
 O        -3.751151         1.504459         1.986482
 C        -2.136498         0.166767         0.212079
 C        -2.529543         0.779265        -1.206032
 C        -2.252856         2.290911        -1.077868
 C        -1.704972         2.273806         0.402480
 H         1.078912         0.384946         0.981561
 H        -1.151292         0.038436         2.582872
 H        -1.072638         1.842478         2.824045
 H        -4.325019         1.770064         1.135581
 H        -1.888208        -0.897556         0.443937
 H        -2.126685         0.449190        -2.166149
 H        -3.562089         0.545753        -1.323796
 H        -1.373019         2.572586        -1.749316
 H        -3.028474         3.018976        -1.176743
 H        -1.563185         3.223528         0.915198
