19
Iteration:  4961charge 0 multiplicity 1
 O         0.483948         0.830845         0.327303
 C        -0.826423         1.090987         0.684201
 C        -1.214003         1.175630         2.189755
 C        -2.538435         1.386960         1.235130
 O        -3.741525         1.621956         1.807927
 C        -2.144410         0.201028         0.248382
 C        -2.574511         0.454212        -1.136583
 C        -2.292383         2.033640        -1.141691
 C        -1.668599         2.273239         0.335519
 H         0.644645        -0.087847        -0.164866
 H        -1.169641         0.242886         2.717551
 H        -0.859921         1.959608         2.853620
 H        -4.348384         0.873316         1.659051
 H        -2.148015        -0.885386         0.598162
 H        -2.055862        -0.144443        -1.838695
 H        -3.682736         0.279211        -1.005903
 H        -1.584347         2.326196        -1.917208
 H        -3.142155         2.656487        -1.272228
 H        -1.421556         3.335592         0.546352
