19
Iteration:  2665charge 0 multiplicity 1
 O         0.476452         0.582203         0.284861
 C        -0.808263         1.022158         0.655920
 C        -1.231643         1.000698         2.120720
 C        -2.533832         1.331141         1.335980
 O        -3.779195         1.609229         1.794338
 C        -2.056586         0.281267         0.223563
 C        -2.503624         0.662052        -1.214450
 C        -2.378311         2.257638        -0.987834
 C        -1.737639         2.323582         0.357686
 H         0.672881         0.279087        -0.685200
 H        -1.278921         0.090918         2.691270
 H        -0.750719         1.752881         2.726947
 H        -4.167200         0.811237         2.397243
 H        -2.041343        -0.764017         0.594152
 H        -1.723863         0.382565        -1.955128
 H        -3.507645         0.334567        -1.382441
 H        -1.725036         2.685023        -1.805031
 H        -3.347031         2.699194        -1.129350
 H        -1.287784         3.300977         0.696747
