19
Iteration:  3016
 O         0.463838         0.738560         0.153532
 C        -0.823150         1.001595         0.650214
 C        -1.250177         0.955759         2.165150
 C        -2.550846         1.275464         1.331566
 O        -3.826047         1.641617         1.822803
 C        -2.083474         0.189143         0.218721
 C        -2.479378         0.728551        -1.142171
 C        -2.287705         2.213325        -1.015447
 C        -1.658000         2.225623         0.494076
 H         0.296364         0.636816        -0.763767
 H        -1.218799        -0.097454         2.479534
 H        -0.841532         1.708071         2.875148
 H        -4.425243         1.750841         0.950123
 H        -2.214690        -0.836256         0.622038
 H        -1.802787         0.211638        -1.818877
 H        -3.465508         0.258314        -1.348458
 H        -1.470703         2.442794        -1.702609
 H        -3.141690         2.794305        -1.060691
 H        -1.324353         3.151977         1.040968
