19
Iteration:  3659charge 0 multiplicity 1
 O         0.372122         0.795217         0.027184
 C        -0.817726         0.903451         0.688578
 C        -1.240074         0.859315         2.225936
 C        -2.550557         1.336577         1.303051
 O        -3.802343         1.594075         1.765001
 C        -2.155197         0.204208         0.231553
 C        -2.510203         0.715377        -1.098546
 C        -2.184083         2.272160        -0.965191
 C        -1.582371         2.270847         0.414014
 H         1.060278         0.825189         0.761127
 H        -1.494876        -0.079290         2.791263
 H        -0.940284         1.666077         2.918117
 H        -4.468219         1.159228         1.085377
 H        -2.451286        -0.831033         0.458228
 H        -2.000443         0.095358        -1.831215
 H        -3.563313         0.659133        -1.434380
 H        -1.487604         2.737206        -1.657640
 H        -3.157590         2.870519        -1.039243
 H        -1.128466         3.101977         0.985585
