19
Iteration:   630
 O         0.419142         0.794705         0.140318
 C        -0.849857         0.900006         0.653537
 C        -1.246689         0.896467         2.063155
 C        -2.511923         1.367969         1.292845
 O        -3.812258         1.489422         1.904123
 C        -2.179026         0.272090         0.255977
 C        -2.480570         0.746947        -1.166965
 C        -2.259643         2.273770        -1.046736
 C        -1.623295         2.242796         0.372917
 H         0.783495         0.013448         0.560022
 H        -1.441882        -0.105028         2.516406
 H        -0.845612         1.729269         2.708546
 H        -3.740616         2.013954         2.812666
 H        -2.436744        -0.819099         0.337471
 H        -1.647643         0.397039        -1.776079
 H        -3.444025         0.396720        -1.585316
 H        -1.606553         2.583871        -1.844955
 H        -3.218437         2.844122        -1.014406
 H        -1.302573         3.173668         0.783233
