19
Iteration:   533
 O         0.419190         0.918715         0.079231
 C        -0.822036         0.886849         0.619409
 C        -1.296674         0.884433         2.176966
 C        -2.420036         1.366519         1.351329
 O        -3.864621         1.477801         1.699408
 C        -2.159498         0.175162         0.306660
 C        -2.618531         0.704270        -1.018838
 C        -2.139835         2.228875        -0.985109
 C        -1.577904         2.269341         0.426809
 H         0.545457         0.227651        -0.533798
 H        -1.279965        -0.080096         2.709187
 H        -0.685654         1.598942         2.788456
 H        -4.241424         2.413874         1.900197
 H        -2.417071        -0.815494         0.570773
 H        -2.246281         0.140260        -1.871792
 H        -3.717561         0.574285        -1.136610
 H        -1.341370         2.356621        -1.706767
 H        -2.912089         2.927069        -1.220487
 H        -1.162302         3.300508         0.825625
