19
Iteration:  1895charge 0 multiplicity 1
 O         0.420031         0.831080         0.079346
 C        -0.807867         0.917163         0.727679
 C        -1.192409         0.931389         2.213415
 C        -2.501185         1.395198         1.380099
 O        -3.903977         1.587656         1.786986
 C        -2.069459         0.202319         0.247164
 C        -2.603432         0.683419        -1.141822
 C        -2.135335         2.201199        -1.113847
 C        -1.663776         2.291874         0.406137
 H         0.766120        -0.050671         0.275433
 H        -1.374197        -0.024772         2.674422
 H        -0.718796         1.657121         2.881303
 H        -4.107747         0.849502         2.267839
 H        -2.187544        -0.903087         0.437630
 H        -2.352372         0.117741        -2.031057
 H        -3.676240         0.714726        -1.159717
 H        -1.432063         2.445174        -1.861444
 H        -2.999618         2.855553        -1.319467
 H        -1.491909         3.353277         0.655375
