19
Iteration:  1444charge 0 multiplicity 1
 O         0.346270         0.724178        -0.012248
 C        -0.892632         0.930290         0.684825
 C        -1.188873         1.041580         2.191726
 C        -2.555496         1.251296         1.296749
 O        -3.785195         1.647385         1.874338
 C        -2.203437         0.191378         0.233854
 C        -2.388077         0.602381        -1.218715
 C        -2.182065         2.262949        -1.039732
 C        -1.745790         2.230458         0.491902
 H         1.128114         0.859178         0.568035
 H        -1.087593         0.395823         3.036785
 H        -0.702189         2.107936         2.554799
 H        -4.120540         0.998407         2.593183
 H        -2.454785        -0.802457         0.430927
 H        -1.560625         0.258040        -1.901095
 H        -3.390926         0.494451        -1.570597
 H        -1.427800         2.758264        -1.634837
 H        -3.099687         2.792088        -1.191866
 H        -1.393468         3.238941         0.934317
