19
Iteration:  2304charge 0 multiplicity 1
 O         0.462109         0.715199         0.199063
 C        -0.860786         0.959489         0.619070
 C        -1.220696         0.983538         2.193699
 C        -2.516878         1.328949         1.376575
 O        -3.818328         1.653005         1.746047
 C        -2.040971         0.201573         0.213047
 C        -2.497705         0.733782        -1.200380
 C        -2.411255         2.274306        -1.007044
 C        -1.648564         2.199909         0.389666
 H         0.497167        -0.185923         0.100356
 H        -1.186042        -0.063295         2.684777
 H        -0.781774         1.842212         2.712887
 H        -4.053996         1.030618         2.390191
 H        -1.854089        -0.833446         0.546685
 H        -1.849758         0.329803        -2.000413
 H        -3.430932         0.364490        -1.460169
 H        -1.759911         2.699259        -1.796166
 H        -3.341827         2.894248        -0.932590
 H        -1.178754         3.035823         0.923345
