19
Iteration:  2683
 O         0.480996         0.523250         0.296501
 C        -0.818831         1.061820         0.600457
 C        -1.209058         1.043501         2.026733
 C        -2.496125         1.316262         1.234900
 O        -3.812494         1.620701         1.816500
 C        -2.066084         0.220156         0.298991
 C        -2.472930         0.710055        -1.120456
 C        -2.303035         2.217790        -1.038441
 C        -1.747875         2.360489         0.462511
 H         0.377790         0.748826        -0.728071
 H        -1.097720         0.006916         2.451206
 H        -1.007682         1.811018         2.786762
 H        -4.009292         0.647512         2.292544
 H        -2.267027        -0.867998         0.367001
 H        -1.938042         0.139458        -1.837802
 H        -3.560888         0.386730        -1.412432
 H        -1.616171         2.740626        -1.712480
 H        -3.336547         2.670928        -1.143121
 H        -1.864763         3.427950         0.869489
