19
Iteration:  1972charge 0 multiplicity 1
 O         0.514597         0.789877         0.117841
 C        -0.809987         0.988392         0.662196
 C        -1.290178         0.925067         2.138606
 C        -2.551873         1.323486         1.230171
 O        -3.770711         1.693564         1.795846
 C        -2.153623         0.218554         0.271118
 C        -2.469342         0.632681        -1.130860
 C        -2.302959         2.227045        -0.986610
 C        -1.688352         2.267866         0.419938
 H         0.653652        -0.101805         0.392913
 H        -1.444841        -0.149046         2.447978
 H        -0.746159         1.523943         2.962468
 H        -4.031351         0.904787         2.386246
 H        -2.295054        -0.837118         0.534813
 H        -1.791772         0.228404        -1.879570
 H        -3.496699         0.447080        -1.363286
 H        -1.824560         2.629988        -1.857111
 H        -3.367374         2.547931        -0.948233
 H        -1.357053         3.263645         0.754009
