19
Iteration:  2056charge 0 multiplicity 1
 O         0.407904         0.873170         0.134056
 C        -0.835627         0.990155         0.655888
 C        -1.261831         0.894277         2.132996
 C        -2.506721         1.304145         1.336868
 O        -3.802898         1.610999         1.802101
 C        -2.105896         0.242998         0.244790
 C        -2.617112         0.671750        -1.094527
 C        -2.130718         2.138191        -1.041489
 C        -1.633031         2.290771         0.387070
 H         0.894084         0.065425         0.374076
 H        -1.350807        -0.133974         2.503357
 H        -0.911592         1.596758         2.894491
 H        -4.177983         0.787791         2.058380
 H        -2.318230        -0.774325         0.646935
 H        -2.391580         0.088011        -1.969821
 H        -3.709919         0.790421        -1.229109
 H        -1.386180         2.465098        -1.828155
 H        -2.865752         2.874634        -1.265731
 H        -1.368579         3.291784         0.686137
