19
Iteration:  1507
 O         0.560076         0.669824         0.189332
 C        -0.776414         0.999004         0.656310
 C        -1.233684         0.937134         2.155589
 C        -2.472967         1.283891         1.334839
 O        -3.809060         1.652535         1.698433
 C        -2.123690         0.185621         0.251994
 C        -2.677449         0.722466        -1.099266
 C        -2.348669         2.246043        -0.973079
 C        -1.672252         2.243840         0.341631
 H         1.047060         1.560372         0.070676
 H        -1.299687         0.020393         2.758205
 H        -0.746166         1.678567         2.796993
 H        -4.236884         0.816917         2.095868
 H        -2.295511        -0.946746         0.596255
 H        -2.017821         0.286970        -1.862899
 H        -3.767323         0.552464        -1.288054
 H        -1.589282         2.361510        -1.776861
 H        -3.133739         2.992343        -1.093984
 H        -1.312566         3.275976         0.789346
