19
Iteration:  4292charge 0 multiplicity 1
 O         0.527159         0.711748         0.286223
 C        -0.825068         1.083580         0.602305
 C        -1.335202         1.186392         2.152369
 C        -2.577315         1.317872         1.302255
 O        -3.802355         1.522925         1.937347
 C        -2.094396         0.183774         0.317913
 C        -2.570501         0.553908        -1.197691
 C        -2.220362         2.070562        -1.110439
 C        -1.648853         2.258172         0.292997
 H         0.866314         1.090315        -0.506266
 H        -1.196897         0.221115         2.739791
 H        -0.959521         2.082610         2.626382
 H        -4.211877         2.370651         1.658510
 H        -2.194260        -0.810329         0.779809
 H        -2.016909        -0.103910        -1.851719
 H        -3.636934         0.331945        -1.458379
 H        -1.550845         2.470525        -1.831414
 H        -3.189746         2.622583        -1.297391
 H        -1.243493         3.283017         0.569686
