19
Iteration:  1071charge 0 multiplicity 1
 O         0.414697         0.819425         0.157154
 C        -0.854824         0.960629         0.673964
 C        -1.261223         0.843056         2.123747
 C        -2.392271         1.299523         1.295022
 O        -3.742656         1.615865         1.668671
 C        -2.183265         0.198328         0.222714
 C        -2.697354         0.709772        -1.103209
 C        -2.234999         2.285110        -0.944049
 C        -1.606812         2.296478         0.448371
 H         0.851244         0.028488         0.644591
 H        -1.275360        -0.155204         2.459542
 H        -0.720746         1.537698         2.885070
 H        -3.994264         0.801618         1.946225
 H        -2.240459        -0.798799         0.523099
 H        -2.194188         0.239037        -1.992464
 H        -3.801751         0.661224        -1.134034
 H        -1.395845         2.535122        -1.717735
 H        -3.143762         3.010501        -0.959708
 H        -1.069473         3.245598         0.835709
