19
Iteration:  2489
 O         0.503738         0.820884         0.237707
 C        -0.854854         0.943085         0.662537
 C        -1.259253         0.877124         2.238419
 C        -2.447557         1.242780         1.365971
 O        -3.736362         1.728908         1.697618
 C        -2.178302         0.202767         0.255661
 C        -2.574444         0.691554        -1.193215
 C        -2.394529         2.244043        -1.014171
 C        -1.605340         2.177923         0.352478
 H         0.519241         0.315752        -0.648623
 H        -1.218619        -0.026913         2.845831
 H        -0.973263         1.834850         2.620094
 H        -4.230052         1.128119         2.258906
 H        -2.162871        -0.877892         0.480619
 H        -1.633564         0.417773        -1.894492
 H        -3.450773         0.193730        -1.663974
 H        -1.732194         2.808906        -1.694026
 H        -3.268679         2.840301        -0.739944
 H        -1.351731         3.198647         0.770210
