19
Iteration:   636charge 0 multiplicity 1
 O         0.377491         0.795423         0.110814
 C        -0.864749         0.879886         0.685182
 C        -1.218014         0.888508         2.130678
 C        -2.520051         1.350069         1.283436
 O        -3.766595         1.505328         1.874552
 C        -2.174940         0.260208         0.199123
 C        -2.454792         0.738856        -1.195275
 C        -2.247537         2.269730        -1.018900
 C        -1.703600         2.282345         0.376457
 H         0.905239         0.051103         0.624267
 H        -1.470715        -0.019521         2.689917
 H        -0.776467         1.621786         2.767768
 H        -3.631677         2.048185         2.670298
 H        -2.348737        -0.793101         0.535367
 H        -1.727057         0.247352        -1.898050
 H        -3.503791         0.459168        -1.417898
 H        -1.479139         2.666167        -1.774428
 H        -3.229765         2.828295        -1.074518
 H        -1.312761         3.217413         0.883977
