19
Iteration:   973charge 0 multiplicity 1
 O         0.467384         0.733915         0.020957
 C        -0.781539         0.921105         0.652789
 C        -1.270570         0.996177         2.066467
 C        -2.600086         1.271189         1.347841
 O        -3.844572         1.616815         1.916558
 C        -2.191475         0.243690         0.164120
 C        -2.439976         0.787503        -1.179659
 C        -2.178404         2.213893        -0.895243
 C        -1.691772         2.223954         0.469355
 H         0.625554        -0.287820         0.017175
 H        -1.313321         0.112259         2.627447
 H        -1.012434         1.968795         2.569157
 H        -4.207634         1.049993         2.493452
 H        -2.183727        -0.792498         0.223251
 H        -1.655242         0.275248        -1.760542
 H        -3.365110         0.650571        -1.591923
 H        -1.364878         2.692369        -1.562365
 H        -3.162058         2.740303        -1.184881
 H        -1.480962         3.268367         0.969681
