19
Iteration:  4824charge 0 multiplicity 1
 O         0.512290         0.763471         0.249307
 C        -0.805729         1.068707         0.658844
 C        -1.276949         1.229680         2.097203
 C        -2.502852         1.331021         1.302098
 O        -3.763669         1.583870         1.834813
 C        -2.080411         0.144810         0.314076
 C        -2.646138         0.519089        -1.129118
 C        -2.269951         2.021372        -1.082766
 C        -1.721550         2.282019         0.326756
 H         1.111501         0.579789         1.010716
 H        -1.378086         0.328729         2.811012
 H        -0.947046         2.186646         2.512515
 H        -4.498762         1.517752         1.221813
 H        -2.022408        -0.905832         0.623923
 H        -2.094688        -0.012972        -1.945080
 H        -3.696053         0.390272        -1.199542
 H        -1.501274         2.403159        -1.846712
 H        -3.124494         2.767616        -1.402280
 H        -1.181008         3.200886         0.338266
