19
Iteration:  2661
 O         0.487709         0.617122         0.286625
 C        -0.829901         0.986746         0.657062
 C        -1.222808         0.999364         2.143301
 C        -2.507806         1.325281         1.344936
 O        -3.785407         1.605273         1.794041
 C        -2.041434         0.298059         0.261288
 C        -2.504256         0.705121        -1.239227
 C        -2.413096         2.254071        -1.024027
 C        -1.687033         2.257530         0.360354
 H         0.480135         0.315802        -0.596698
 H        -1.347226         0.080102         2.755922
 H        -0.775816         1.789327         2.766758
 H        -4.092052         0.943145         2.305276
 H        -2.239667        -0.787072         0.510112
 H        -1.831731         0.380457        -1.982655
 H        -3.517015         0.204459        -1.470735
 H        -1.705159         2.711819        -1.731312
 H        -3.410115         2.745923        -1.163409
 H        -1.317205         3.320957         0.588460
