19
Iteration:  2581
 O         0.476287         0.758099         0.192588
 C        -0.814014         1.031818         0.653700
 C        -1.276128         0.943842         2.136140
 C        -2.521053         1.336219         1.343928
 O        -3.777136         1.588183         1.751226
 C        -2.136043         0.237348         0.278002
 C        -2.672903         0.703101        -1.068964
 C        -2.107628         2.173892        -1.066576
 C        -1.684989         2.239744         0.423349
 H         0.474548         1.068522        -0.680690
 H        -1.191996        -0.149294         2.432716
 H        -0.988884         1.753507         2.866132
 H        -4.019495         0.813097         2.143914
 H        -2.288189        -0.806611         0.548179
 H        -2.196020         0.120499        -1.956633
 H        -3.768864         0.675712        -1.116181
 H        -1.291380         2.199109        -1.810756
 H        -2.953513         2.793661        -1.415216
 H        -1.405506         3.179248         0.808302
