19
Iteration:   108
 O         0.407268         0.641325         0.237819
 C        -0.801612         1.034897         0.659271
 C        -1.277248         0.927144         2.076540
 C        -2.480620         1.216981         1.287964
 O        -3.762020         1.507503         1.675327
 C        -2.040618         0.229678         0.183009
 C        -2.550724         0.775595        -1.126434
 C        -2.327297         2.311305        -0.880284
 C        -1.686204         2.273197         0.496010
 H         0.387063         0.618506        -0.656850
 H        -0.980844        -0.097131         2.521833
 H        -1.131472         1.820127         2.697298
 H        -3.699203         2.381231         2.100878
 H        -2.182234        -0.782896         0.561675
 H        -2.052201         0.382198        -2.044648
 H        -3.581822         0.382025        -1.337768
 H        -1.551722         2.778164        -1.487652
 H        -3.209940         2.955064        -1.011307
 H        -1.348462         3.119046         1.004842
