19
Iteration:   232
 O         0.437415         0.828860         0.166232
 C        -0.854359         0.908064         0.650918
 C        -1.209394         0.905439         2.135082
 C        -2.495988         1.356451         1.301153
 O        -3.848964         1.413431         1.759313
 C        -2.170533         0.248871         0.236792
 C        -2.633724         0.758194        -1.074666
 C        -2.184340         2.271771        -1.024129
 C        -1.592204         2.296947         0.404633
 H         0.822240        -0.008790         0.184955
 H        -1.351870        -0.022701         2.668307
 H        -0.604002         1.617888         2.764693
 H        -4.045392         2.224624         2.092584
 H        -2.442938        -0.781692         0.498221
 H        -1.916969         0.279008        -1.790017
 H        -3.625678         0.449695        -1.404327
 H        -1.452708         2.369461        -1.753046
 H        -2.975781         2.987507        -1.081431
 H        -1.139561         3.232566         0.761506
