19
Iteration:  1392
 O         0.580133         0.649451         0.132880
 C        -0.723197         0.971516         0.714258
 C        -1.252040         0.937599         2.145132
 C        -2.480240         1.365733         1.257939
 O        -3.795448         1.612338         1.744540
 C        -2.067454         0.241363         0.230784
 C        -2.732356         0.703239        -1.056998
 C        -2.341021         2.169092        -1.025528
 C        -1.711212         2.304654         0.407866
 H         1.200754         1.349707         0.541033
 H        -1.333451        -0.077339         2.617091
 H        -0.951590         1.707526         2.952322
 H        -4.185942         0.785705         1.777793
 H        -2.147415        -0.809150         0.504675
 H        -2.354334         0.276355        -2.070771
 H        -3.838426         0.706667        -1.009849
 H        -1.578894         2.478722        -1.806645
 H        -3.167689         2.947404        -1.078690
 H        -1.500814         3.298567         0.758003
