19
Iteration:  4156charge 0 multiplicity 1
 O         0.425909         0.739342         0.162437
 C        -0.785909         1.025750         0.687375
 C        -1.314382         0.969084         2.128550
 C        -2.544531         1.388088         1.333864
 O        -3.769114         1.594992         1.909626
 C        -2.067879         0.268379         0.275504
 C        -2.553494         0.623887        -1.189521
 C        -2.235808         2.107836        -1.167623
 C        -1.674209         2.320996         0.351812
 H         1.152379         0.837483         0.896188
 H        -1.462860         0.011028         2.626404
 H        -1.178490         1.754335         2.942083
 H        -4.391052         0.808676         1.865497
 H        -2.144274        -0.744467         0.702483
 H        -2.020039        -0.000700        -2.005467
 H        -3.575041         0.275030        -1.358996
 H        -1.277163         2.281799        -1.761755
 H        -3.039017         2.832422        -1.425395
 H        -1.456891         3.328042         0.634915
