19
Iteration:   306charge 0 multiplicity 1
 O         0.622103         0.748215         0.219184
 C        -0.753913         0.975559         0.673262
 C        -1.237371         0.886386         2.130845
 C        -2.541236         1.325213         1.315532
 O        -3.860208         1.475891         1.763953
 C        -2.367301         0.292337         0.289537
 C        -2.535982         0.722957        -1.157173
 C        -2.306817         2.264608        -1.023876
 C        -1.573502         2.278818         0.366734
 H         0.500427         0.352693        -0.697936
 H        -1.158203        -0.048005         2.646228
 H        -0.807922         1.672456         2.811357
 H        -3.829784         1.965436         2.670579
 H        -2.467915        -0.724513         0.506033
 H        -1.763086         0.269184        -1.790243
 H        -3.490292         0.497206        -1.608875
 H        -1.712427         2.618722        -1.913065
 H        -3.281606         2.811324        -0.853006
 H        -1.382740         3.220041         0.672338
