19
Iteration:   987charge 0 multiplicity 1
 O         0.468799         0.740517         0.056774
 C        -0.852574         0.944777         0.630503
 C        -1.320596         0.928330         2.154414
 C        -2.536506         1.338535         1.301463
 O        -3.811643         1.574222         1.928128
 C        -2.184874         0.265822         0.251204
 C        -2.466033         0.729299        -1.203218
 C        -2.201624         2.293229        -1.023779
 C        -1.652558         2.278458         0.431764
 H         0.702609        -0.161379         0.126435
 H        -1.325814        -0.098705         2.754595
 H        -0.846692         1.630169         2.825734
 H        -4.024893         0.573681         2.150910
 H        -2.438182        -0.765432         0.600763
 H        -1.793609         0.334443        -1.961937
 H        -3.455852         0.450290        -1.578225
 H        -1.523584         2.697102        -1.766166
 H        -3.055090         2.928122        -0.998376
 H        -1.177652         3.219460         0.887368
