19
Iteration:   413charge 0 multiplicity 1
 O         0.452300         0.614104         0.104270
 C        -0.798949         1.015315         0.635776
 C        -1.229160         0.944979         2.146714
 C        -2.514903         1.210659         1.330101
 O        -3.815917         1.538189         1.625035
 C        -2.099493         0.246410         0.247100
 C        -2.601512         0.737017        -1.047420
 C        -2.278413         2.258919        -0.938322
 C        -1.698698         2.300316         0.488313
 H         1.230022         1.268791         0.080046
 H        -1.161990         0.031614         2.749199
 H        -0.979201         1.856030         2.703065
 H        -3.782592         2.304809         2.257704
 H        -1.997125        -0.819489         0.385517
 H        -2.113808         0.198719        -1.853911
 H        -3.691126         0.632217        -1.245754
 H        -1.496165         2.581734        -1.655604
 H        -3.149579         2.848791        -1.237301
 H        -1.391663         3.255683         1.103235
