19
Iteration:   627charge 0 multiplicity 1
 O         0.444431         0.792610         0.150274
 C        -0.840208         0.930504         0.623255
 C        -1.272885         0.911002         2.051127
 C        -2.515991         1.365637         1.309475
 O        -3.830555         1.485657         1.918331
 C        -2.193775         0.269343         0.268006
 C        -2.493864         0.752138        -1.152377
 C        -2.263865         2.261488        -1.047371
 C        -1.588893         2.232340         0.372898
 H         0.815060        -0.100724         0.551046
 H        -1.360544        -0.134208         2.470088
 H        -0.865639         1.691481         2.679463
 H        -3.767364         1.948446         2.759705
 H        -2.459102        -0.859260         0.335538
 H        -1.621407         0.418406        -1.778534
 H        -3.418712         0.377383        -1.686999
 H        -1.615410         2.640096        -1.943511
 H        -3.258847         2.907927        -1.011708
 H        -1.239409         3.164421         0.735590
