19
Iteration:   722
 O         0.530520         0.592404         0.231814
 C        -0.794860         0.989343         0.643802
 C        -1.232972         0.947817         2.087944
 C        -2.544548         1.247093         1.280679
 O        -3.848835         1.458126         1.806917
 C        -2.087284         0.194093         0.179087
 C        -2.676885         0.800831        -1.069573
 C        -2.237706         2.345046        -1.035921
 C        -1.623492         2.300111         0.403476
 H         0.971093         1.264808        -0.285285
 H        -1.196066        -0.074317         2.493812
 H        -1.097931         1.819669         2.749782
 H        -3.868081         2.285499         2.244460
 H        -2.121172        -0.831592         0.459446
 H        -2.399599         0.397917        -2.061922
 H        -3.761745         0.811743        -0.911431
 H        -1.553506         2.517530        -1.844222
 H        -3.068247         2.968014        -1.051393
 H        -1.435676         3.295616         1.023265
