19
Iteration:  1910
 O         0.411854         0.847916         0.062174
 C        -0.832078         1.017645         0.629611
 C        -1.296914         0.999059         2.156022
 C        -2.583434         1.241456         1.313479
 O        -3.806341         1.633894         1.852329
 C        -2.153469         0.216977         0.225781
 C        -2.552599         0.696402        -1.145362
 C        -2.102377         2.153920        -1.013522
 C        -1.681162         2.226063         0.429459
 H         0.714462        -0.003860         0.250169
 H        -1.115419         0.069548         2.677043
 H        -0.938489         1.853943         2.685974
 H        -4.143847         0.911257         2.427761
 H        -2.166100        -0.800880         0.553993
 H        -1.862459         0.201013        -1.847923
 H        -3.634997         0.476754        -1.225644
 H        -1.161420         2.223875        -1.582251
 H        -2.818048         2.899396        -1.344028
 H        -1.144418         3.028828         0.930517
