19
Iteration:  2316
 O         0.491812         0.763050         0.240218
 C        -0.804088         0.935464         0.623814
 C        -1.267956         1.033603         2.085564
 C        -2.478279         1.256830         1.282936
 O        -3.747674         1.692072         1.712864
 C        -2.108489         0.120448         0.202825
 C        -2.558092         0.720036        -1.126767
 C        -2.372117         2.246016        -0.879012
 C        -1.703598         2.221633         0.392492
 H         0.701223        -0.199779         0.059115
 H        -1.314362         0.082535         2.707960
 H        -0.828575         1.776868         2.754535
 H        -4.073354         1.113499         2.532007
 H        -2.320331        -0.953212         0.181272
 H        -1.698625         0.589521        -1.789234
 H        -3.433860         0.361235        -1.564970
 H        -1.752804         2.672686        -1.714547
 H        -3.281105         2.857583        -0.805858
 H        -1.389974         3.191001         0.715199
