19
Iteration:  4057charge 0 multiplicity 1
 O         0.520282         0.740140         0.249378
 C        -0.762393         1.037599         0.686070
 C        -1.204953         0.939072         2.129599
 C        -2.486220         1.267972         1.371465
 O        -3.873610         1.700562         1.674809
 C        -2.149680         0.216083         0.257933
 C        -2.607645         0.713085        -1.104412
 C        -2.257241         2.184174        -0.980564
 C        -1.699490         2.214997         0.405250
 H         0.551087         0.379106        -0.749282
 H        -1.110043        -0.043839         2.631939
 H        -0.792378         1.816656         2.731353
 H        -4.348690         0.802730         1.594920
 H        -2.013233        -0.828123         0.490957
 H        -1.914500         0.182545        -1.881946
 H        -3.594175         0.407448        -1.477669
 H        -1.531279         2.505782        -1.782644
 H        -3.078245         2.905512        -1.118887
 H        -1.502651         3.128849         0.908942
