19
Iteration:    46charge 0 multiplicity 1
 O         0.355091         0.847276         0.097818
 C        -0.868043         0.932561         0.721660
 C        -1.295628         0.826914         2.212254
 C        -2.473942         1.287774         1.292461
 O        -3.767210         1.396374         1.829457
 C        -2.163549         0.241604         0.234859
 C        -2.612251         0.851231        -1.185743
 C        -2.077053         2.269228        -1.073295
 C        -1.613259         2.255941         0.424837
 H         0.925139         0.368931         0.696752
 H        -1.490681        -0.083264         2.714512
 H        -0.776549         1.611649         2.800499
 H        -4.093932         2.307613         1.875557
 H        -2.389840        -0.782044         0.360656
 H        -2.123262         0.314945        -2.004117
 H        -3.669504         0.840161        -1.339470
 H        -1.300477         2.557225        -1.812240
 H        -2.942848         2.918207        -1.214190
 H        -1.300358         3.231613         0.868795
