19
Iteration:  4515
 O         0.547819         0.671232         0.326074
 C        -0.745542         1.014026         0.652303
 C        -1.239795         1.255181         2.141999
 C        -2.524089         1.379922         1.300467
 O        -3.874455         1.563428         1.726888
 C        -2.009773         0.154100         0.319574
 C        -2.624297         0.533887        -1.209179
 C        -2.317883         2.050704        -1.095546
 C        -1.727649         2.255457         0.355086
 H         0.788953         0.816578        -0.628444
 H        -1.129970         0.598709         3.028650
 H        -0.872867         2.243755         2.637575
 H        -3.973402         2.042789         2.538479
 H        -2.058553        -0.814467         0.889241
 H        -2.191763         0.061984        -2.104041
 H        -3.692256         0.312636        -1.057549
 H        -1.642256         2.451321        -1.862758
 H        -3.289771         2.689326        -1.101646
 H        -1.440872         3.286971         0.546512
