19
Iteration:  4531
 O         0.597854         0.608120         0.437830
 C        -0.824483         1.027462         0.685583
 C        -1.179793         1.259940         2.093614
 C        -2.512257         1.361613         1.272591
 O        -3.831645         1.482659         1.748921
 C        -2.098266         0.232774         0.296398
 C        -2.573222         0.562431        -1.032999
 C        -2.357699         2.118086        -1.142320
 C        -1.786601         2.334369         0.193501
 H         0.771938         0.790207        -0.602825
 H        -1.091215         0.314184         2.645440
 H        -0.785462         2.145550         2.496140
 H        -3.739148         2.017948         2.536624
 H        -2.176179        -0.837314         0.422354
 H        -2.081894        -0.108614        -1.773580
 H        -3.614818         0.379215        -1.285479
 H        -1.677782         2.446191        -1.984612
 H        -3.317348         2.503660        -1.186509
 H        -1.557105         3.302927         0.666565
