19
Iteration:  4369charge 0 multiplicity 1
 O         0.519701         0.783838         0.265581
 C        -0.803230         0.965609         0.650982
 C        -1.288990         1.202966         2.201362
 C        -2.490399         1.399070         1.357060
 O        -3.722440         1.659811         1.713081
 C        -2.024532         0.150493         0.341977
 C        -2.578133         0.518909        -1.104031
 C        -2.340639         2.113971        -1.102258
 C        -1.752776         2.231642         0.306589
 H         0.486117         0.281996        -0.671055
 H        -1.367858         0.286211         2.861592
 H        -1.014237         2.076529         2.828286
 H        -4.323681         0.913452         1.447116
 H        -2.170601        -0.931072         0.480318
 H        -2.196676        -0.171530        -1.865908
 H        -3.673688         0.215296        -1.049780
 H        -1.545627         2.398925        -1.643143
 H        -3.209129         2.765752        -1.190018
 H        -1.385501         3.259011         0.639953
