19
Iteration:  1650charge 0 multiplicity 1
 O         0.451770         0.764328         0.106902
 C        -0.819640         1.031159         0.584644
 C        -1.281940         0.866366         2.223489
 C        -2.484131         1.365999         1.330519
 O        -3.790644         1.631607         1.782462
 C        -2.114259         0.232993         0.248858
 C        -2.554953         0.698179        -1.097927
 C        -2.287515         2.173232        -1.057892
 C        -1.652187         2.289330         0.329844
 H         0.982790         0.377135         0.905451
 H        -1.367432        -0.120449         2.636180
 H        -0.923218         1.415886         3.121986
 H        -4.151940         1.000526         2.517961
 H        -2.033105        -0.900296         0.622052
 H        -1.891563         0.161257        -1.794614
 H        -3.635596         0.462618        -1.283189
 H        -1.606699         2.511870        -1.925199
 H        -3.244076         2.716359        -1.070079
 H        -1.370954         3.338153         0.598474
