19
Iteration:   705charge 0 multiplicity 1
 O         0.414575         0.653705         0.164391
 C        -0.820645         0.978145         0.655329
 C        -1.272308         0.914229         2.208352
 C        -2.428037         1.310587         1.328700
 O        -3.724537         1.382814         1.714289
 C        -2.155670         0.333572         0.236913
 C        -2.721257         0.800745        -1.119373
 C        -2.227575         2.253908        -0.990876
 C        -1.635806         2.277696         0.426800
 H         0.943247         1.491868         0.069173
 H        -1.374834        -0.094649         2.661942
 H        -0.683211         1.620263         2.803090
 H        -3.899786         2.267451         1.713738
 H        -2.308066        -0.811376         0.388435
 H        -2.158561         0.313191        -1.928415
 H        -3.841485         0.689496        -1.214397
 H        -1.343247         2.373065        -1.697715
 H        -3.045967         3.107294        -1.128310
 H        -1.194331         3.189845         0.634788
