19
Iteration:  2631
 O         0.559558         0.823726         0.242405
 C        -0.846504         0.941515         0.597698
 C        -1.254602         0.958833         2.105789
 C        -2.556094         1.246120         1.249932
 O        -3.746906         1.708500         1.733801
 C        -2.206458         0.194989         0.279079
 C        -2.560357         0.638415        -1.148725
 C        -2.288172         2.219349        -0.894750
 C        -1.616123         2.219682         0.423847
 H         0.562700         0.381832        -0.667979
 H        -1.417880         0.106005         2.729265
 H        -0.870832         1.836034         2.582758
 H        -4.248353         0.979744         2.326358
 H        -2.381840        -0.857241         0.556154
 H        -1.945481         0.152665        -1.902821
 H        -3.578852         0.378553        -1.470294
 H        -1.631457         2.718454        -1.677870
 H        -3.270798         2.700971        -0.905993
 H        -1.271229         3.242896         0.769241
