19
Iteration:   233
 O         0.450458         0.823412         0.162332
 C        -0.860894         0.915098         0.659881
 C        -1.206024         0.903916         2.147385
 C        -2.491623         1.352316         1.307485
 O        -3.849189         1.416876         1.755015
 C        -2.167365         0.250397         0.234853
 C        -2.638220         0.756710        -1.088640
 C        -2.185363         2.270545        -1.022842
 C        -1.598066         2.294693         0.397609
 H         0.822163        -0.011018         0.156830
 H        -1.363099        -0.016124         2.702930
 H        -0.615216         1.614158         2.768997
 H        -4.077533         2.255673         2.127225
 H        -2.444705        -0.814323         0.483918
 H        -1.926100         0.293047        -1.812186
 H        -3.650713         0.452566        -1.393300
 H        -1.456490         2.382898        -1.755415
 H        -2.989829         2.971821        -1.064624
 H        -1.151002         3.275224         0.786335
