19
Iteration:   265
 O         0.515179         0.708599         0.153739
 C        -0.778377         1.034753         0.666337
 C        -1.313346         0.968392         2.146513
 C        -2.520850         1.168552         1.238699
 O        -3.820186         1.596360         1.682692
 C        -1.989874         0.182942         0.185716
 C        -2.616197         0.742141        -1.053426
 C        -2.295694         2.284163        -0.916982
 C        -1.690957         2.275826         0.437856
 H         0.480693        -0.201963        -0.299633
 H        -1.274973         0.017949         2.672713
 H        -1.145932         1.874153         2.805325
 H        -3.639425         2.125230         2.520124
 H        -2.075317        -0.907950         0.354189
 H        -2.032887         0.371089        -1.930232
 H        -3.661930         0.427167        -1.082987
 H        -1.644877         2.612100        -1.675251
 H        -3.145575         2.949712        -0.983578
 H        -1.511997         3.145480         1.082460
