19
Iteration:  2702
 O         0.482563         0.641564         0.238513
 C        -0.843501         0.969316         0.641655
 C        -1.236668         1.038793         2.223085
 C        -2.481047         1.329296         1.330632
 O        -3.792657         1.587327         1.790071
 C        -2.143812         0.233302         0.239844
 C        -2.541007         0.682365        -1.144372
 C        -2.260792         2.237110        -1.071173
 C        -1.750900         2.300289         0.381653
 H         0.510186         0.930625        -0.737018
 H        -1.118431         0.066357         2.771351
 H        -0.740855         1.908507         2.732446
 H        -4.240943         0.758582         2.305429
 H        -2.028396        -0.856545         0.429595
 H        -2.007328         0.174115        -2.079616
 H        -3.519702         0.460589        -1.613990
 H        -1.530056         2.488488        -1.817969
 H        -3.109883         2.964494        -1.050291
 H        -1.161287         3.131973         0.705043
