19
Iteration:  3761
 O         0.548342         0.815989         0.197578
 C        -0.842785         0.964031         0.610566
 C        -1.330846         0.870084         2.122359
 C        -2.500462         1.364605         1.330661
 O        -3.872718         1.499375         1.940032
 C        -2.184118         0.257785         0.190370
 C        -2.558279         0.783142        -1.145720
 C        -2.198187         2.230560        -1.043261
 C        -1.592147         2.264224         0.320156
 H         0.813309        -0.095200         0.499782
 H        -1.345084        -0.165029         2.586075
 H        -0.945860         1.452056         2.964059
 H        -4.357730         1.763984         1.205982
 H        -2.257984        -0.823406         0.412229
 H        -1.990388         0.167619        -1.914753
 H        -3.620499         0.508889        -1.199639
 H        -1.438106         2.501332        -1.785269
 H        -3.091141         2.902581        -1.022422
 H        -1.093068         3.109531         0.744522
