19
Iteration:  1894
 O         0.423170         0.827401         0.083468
 C        -0.796289         0.912888         0.728049
 C        -1.193135         0.922542         2.210481
 C        -2.500640         1.407788         1.385361
 O        -3.901428         1.582868         1.778004
 C        -2.074211         0.201647         0.251088
 C        -2.606298         0.685463        -1.140628
 C        -2.137259         2.208030        -1.113293
 C        -1.670628         2.291826         0.400663
 H         0.741085        -0.013654         0.273817
 H        -1.376402        -0.073156         2.692559
 H        -0.698396         1.691211         2.909624
 H        -4.092945         0.846459         2.245131
 H        -2.176981        -0.922939         0.479636
 H        -2.347826         0.110727        -2.031872
 H        -3.698563         0.734987        -1.112563
 H        -1.419553         2.467141        -1.916704
 H        -3.027683         2.847393        -1.306624
 H        -1.507882         3.369953         0.629967
