19
Iteration:  4212
 O         0.489712         0.848726         0.162966
 C        -0.812504         0.988791         0.700887
 C        -1.204176         1.056453         2.220777
 C        -2.489419         1.348661         1.353323
 O        -3.840737         1.598064         1.612380
 C        -2.097041         0.087832         0.300994
 C        -2.562516         0.602748        -1.107978
 C        -2.270355         2.138323        -1.042810
 C        -1.708816         2.236450         0.387756
 H         0.458127         0.067445        -0.307842
 H        -1.201749         0.193165         2.916507
 H        -0.854121         1.973161         2.815986
 H        -3.993542         2.352573         2.231387
 H        -2.134896        -0.982407         0.642618
 H        -1.933083         0.048439        -1.909929
 H        -3.639593         0.528648        -1.013829
 H        -1.513205         2.490487        -1.832437
 H        -3.296084         2.587890        -1.112036
 H        -1.534170         3.255772         0.712572
