19
Iteration:  4095charge 0 multiplicity 1
 O         0.444791         0.699273         0.151254
 C        -0.790892         1.008381         0.665049
 C        -1.301556         1.021351         2.199935
 C        -2.510548         1.315342         1.313837
 O        -3.836357         1.498922         1.709972
 C        -2.109057         0.256145         0.330073
 C        -2.552835         0.663116        -1.077616
 C        -2.232181         2.167196        -1.013475
 C        -1.569291         2.233748         0.399542
 H         0.540517         1.272493        -0.625313
 H        -1.451775         0.045053         2.710448
 H        -1.096125         1.782529         2.930432
 H        -4.161842         2.351438         1.288396
 H        -2.174771        -0.850018         0.417775
 H        -1.848546         0.242032        -1.739662
 H        -3.620819         0.478611        -1.268577
 H        -1.654797         2.585544        -1.828893
 H        -3.132417         2.809176        -0.887571
 H        -1.333233         3.289400         0.730366
