19
Iteration:  4888
 O         0.456644         0.774162         0.170749
 C        -0.786449         0.998271         0.763013
 C        -1.254077         1.119993         2.196664
 C        -2.510983         1.357521         1.255223
 O        -3.856607         1.608885         1.634022
 C        -2.099139         0.181878         0.437596
 C        -2.488910         0.494320        -1.037949
 C        -2.276639         2.063879        -1.113531
 C        -1.731698         2.265078         0.309426
 H         0.526944         1.366448        -0.716391
 H        -1.271943         0.186166         2.914675
 H        -0.797689         1.934845         2.757211
 H        -3.622260         2.106697         2.455453
 H        -2.101385        -0.875627         0.720202
 H        -1.757291        -0.050455        -1.704822
 H        -3.592564         0.341607        -1.260417
 H        -1.580905         2.458828        -1.908026
 H        -3.359227         2.560573        -1.310708
 H        -1.272622         3.239556         0.758623
