19
Iteration:  3408
 O         0.445277         0.715213         0.059611
 C        -0.782351         0.959005         0.693181
 C        -1.268396         0.916933         2.196297
 C        -2.496229         1.287739         1.270766
 O        -3.858429         1.618218         1.823022
 C        -2.076616         0.185283         0.266156
 C        -2.569007         0.762129        -1.202885
 C        -2.165517         2.221314        -0.962841
 C        -1.683772         2.240518         0.436533
 H         1.003079         1.476110         0.322390
 H        -1.468896        -0.008029         2.718291
 H        -0.834843         1.673106         2.865211
 H        -4.440111         1.277934         1.016734
 H        -2.330177        -0.739855         0.746618
 H        -2.222193         0.099321        -1.947158
 H        -3.666416         0.583963        -1.115397
 H        -1.405055         2.555483        -1.641642
 H        -3.065756         2.865559        -1.113835
 H        -1.452379         3.176564         0.967959
