19
Iteration:  3277charge 0 multiplicity 1
 O         0.512113         0.822131         0.206257
 C        -0.835414         0.959166         0.669288
 C        -1.264913         0.920530         2.102199
 C        -2.490361         1.257507         1.380766
 O        -3.840977         1.526853         1.796033
 C        -2.259863         0.220115         0.269389
 C        -2.627759         0.780974        -1.149930
 C        -2.156346         2.229921        -0.970983
 C        -1.526106         2.253056         0.426027
 H         0.810137         0.589248        -0.762106
 H        -1.384405         0.025836         2.648115
 H        -0.840905         1.749688         2.693506
 H        -4.414200         1.344168         1.054312
 H        -2.630525        -0.787262         0.495239
 H        -1.969288         0.203897        -1.805114
 H        -3.639250         0.660906        -1.610114
 H        -1.554645         2.422875        -1.834592
 H        -3.147147         2.762030        -1.161350
 H        -1.033969         3.165752         0.849808
