19
Iteration:   657
 O         0.358985         0.737237        -0.044465
 C        -0.817866         1.029860         0.673835
 C        -1.277786         0.917694         2.204691
 C        -2.506596         1.215438         1.383553
 O        -3.793586         1.575304         1.779567
 C        -2.098186         0.182426         0.243926
 C        -2.540343         0.735083        -1.214426
 C        -2.157338         2.246184        -0.984888
 C        -1.738043         2.240333         0.527609
 H         0.950595         0.497978         0.645408
 H        -1.106057        -0.079535         2.600637
 H        -1.038662         1.761984         2.821592
 H        -3.771019         2.510639         2.271920
 H        -2.152235        -0.891706         0.322371
 H        -1.874900         0.300591        -1.987733
 H        -3.610613         0.621196        -1.431219
 H        -1.251917         2.503389        -1.573142
 H        -3.001272         2.863743        -1.192538
 H        -1.562886         3.273824         1.050070
