19
Iteration:  2835
 O         0.467948         0.615950         0.227918
 C        -0.767573         1.024208         0.637489
 C        -1.253596         0.988846         2.121179
 C        -2.518783         1.294623         1.340526
 O        -3.775382         1.624707         1.755539
 C        -2.066614         0.273174         0.290556
 C        -2.479312         0.674441        -1.083327
 C        -2.314718         2.247143        -1.031779
 C        -1.843133         2.292117         0.369880
 H         0.433984         0.177020        -0.690278
 H        -1.000837        -0.052099         2.424714
 H        -0.931695         1.820017         2.768726
 H        -4.305211         0.853464         2.240811
 H        -1.883170        -0.760208         0.578161
 H        -1.667295         0.427819        -1.832466
 H        -3.537036         0.482314        -1.387006
 H        -1.577003         2.700883        -1.621081
 H        -3.219511         2.857312        -1.332352
 H        -1.467933         3.285300         0.697299
