19
Iteration:  2050charge 0 multiplicity 1
 O         0.429171         0.863048         0.122319
 C        -0.803823         1.034766         0.625171
 C        -1.297244         0.884223         2.199585
 C        -2.457735         1.365342         1.378927
 O        -3.789680         1.599250         1.755700
 C        -2.139859         0.247308         0.274522
 C        -2.645441         0.696932        -1.117334
 C        -2.144668         2.149854        -1.041009
 C        -1.656389         2.229023         0.377981
 H         0.764479        -0.058167         0.566254
 H        -1.284980        -0.215199         2.399691
 H        -0.951707         1.626970         2.961507
 H        -4.046671         0.603976         1.997900
 H        -2.197965        -0.821362         0.501576
 H        -2.323887         0.120728        -2.026745
 H        -3.750212         0.725728        -1.101529
 H        -1.374338         2.427228        -1.727787
 H        -3.045230         2.826461        -1.278608
 H        -1.277294         3.266812         0.592593
