19
Iteration:   414charge 0 multiplicity 1
 O         0.453775         0.610719         0.105107
 C        -0.798750         1.010859         0.631607
 C        -1.226633         0.949132         2.135933
 C        -2.517928         1.212943         1.325250
 O        -3.822724         1.539258         1.625678
 C        -2.097667         0.239816         0.240344
 C        -2.599284         0.736422        -1.045590
 C        -2.275064         2.255002        -0.933888
 C        -1.702570         2.312387         0.500560
 H         1.260918         1.253131         0.092702
 H        -1.164552         0.071533         2.734644
 H        -0.968985         1.838659         2.714954
 H        -3.771735         2.328301         2.304148
 H        -1.981243        -0.793676         0.385126
 H        -2.122438         0.195457        -1.846866
 H        -3.666511         0.618665        -1.234650
 H        -1.488814         2.579231        -1.676638
 H        -3.176511         2.831852        -1.212751
 H        -1.407197         3.237412         1.097917
