19
Iteration:   910
 O         0.632270         0.855490         0.110933
 C        -0.776792         0.881398         0.669822
 C        -1.277873         0.870108         2.091906
 C        -2.518562         1.257400         1.328190
 O        -3.890846         1.616360         1.771281
 C        -2.182039         0.238613         0.241512
 C        -2.695804         0.736050        -1.126385
 C        -2.260729         2.326350        -1.001074
 C        -1.590303         2.209734         0.401227
 H         0.881549        -0.108110         0.244583
 H        -1.280326        -0.216959         2.674175
 H        -0.878256         1.672265         2.750485
 H        -4.023920         1.098453         2.491203
 H        -2.219775        -0.847691         0.559052
 H        -2.156291         0.252128        -1.964470
 H        -3.803745         0.642299        -1.221422
 H        -1.455249         2.684650        -1.620359
 H        -3.053971         2.986594        -0.878919
 H        -1.245697         3.234098         0.887871
