19
Iteration:  4504
 O         0.502095         0.756273         0.267912
 C        -0.818113         1.043626         0.708009
 C        -1.240682         1.208254         2.204600
 C        -2.499882         1.309079         1.312283
 O        -3.845888         1.595468         1.668975
 C        -2.023026         0.184553         0.338268
 C        -2.595897         0.525292        -1.073909
 C        -2.327585         2.066656        -1.051953
 C        -1.667644         2.206116         0.249761
 H         0.578354         0.875178        -0.797034
 H        -1.349539         0.299259         2.805513
 H        -0.982967         2.261654         2.582882
 H        -3.756012         2.096026         2.491862
 H        -2.232691        -0.882359         0.602318
 H        -2.063939         0.011259        -1.901223
 H        -3.634361         0.221161        -1.288150
 H        -1.552413         2.210111        -1.791367
 H        -3.192469         2.815565        -1.276200
 H        -1.237378         3.111346         0.650315
