19
Iteration:  4067
 O         0.482891         0.727084         0.225422
 C        -0.798600         0.971790         0.646128
 C        -1.127229         0.923694         2.192443
 C        -2.506893         1.347348         1.317235
 O        -3.850354         1.666308         1.656064
 C        -2.096419         0.209936         0.304870
 C        -2.586432         0.624096        -1.081002
 C        -2.270940         2.226246        -1.008544
 C        -1.727249         2.308142         0.466840
 H         0.525800         0.634476        -0.822289
 H        -1.340103        -0.072977         2.608922
 H        -0.747397         1.578827         3.019021
 H        -4.457477         1.085894         1.052482
 H        -2.134812        -0.866407         0.379712
 H        -1.890556         0.190910        -1.889501
 H        -3.643693         0.335771        -1.326642
 H        -1.423448         2.525507        -1.665080
 H        -3.163157         2.854696        -1.043042
 H        -1.476726         3.284914         0.846459
