19
Iteration:  2394charge 0 multiplicity 1
 O         0.486119         0.815907         0.066220
 C        -0.782595         0.993585         0.706742
 C        -1.234840         0.978725         2.243967
 C        -2.544217         1.216754         1.359828
 O        -3.858550         1.580778         1.827361
 C        -2.246974         0.188345         0.261081
 C        -2.656538         0.805988        -1.176573
 C        -2.093127         2.187829        -1.058028
 C        -1.643250         2.241884         0.372474
 H         0.967139         0.253044         0.550929
 H        -0.849763         0.075013         2.793543
 H        -1.006664         2.000927         2.636505
 H        -4.239016         0.745578         2.146810
 H        -2.411532        -0.881929         0.308648
 H        -2.106278         0.341915        -1.952215
 H        -3.681951         0.700830        -1.417192
 H        -1.259307         1.996730        -1.791966
 H        -2.696905         3.022398        -1.333834
 H        -1.342424         3.222694         0.557808
