19
Iteration:  2983charge 0 multiplicity 1
 O         0.467670         0.728358         0.264448
 C        -0.822063         0.951079         0.637143
 C        -1.303012         0.950383         2.140797
 C        -2.494070         1.350534         1.294183
 O        -3.772684         1.521872         1.820212
 C        -2.053868         0.235374         0.224731
 C        -2.537628         0.702619        -1.149677
 C        -2.282832         2.198224        -1.030533
 C        -1.714668         2.301647         0.398325
 H         0.440345         0.802182        -0.739079
 H        -1.352721        -0.081983         2.522850
 H        -0.802785         1.551050         2.920004
 H        -3.935615         2.449025         1.873911
 H        -2.212678        -0.826368         0.529999
 H        -2.051951         0.220870        -2.004876
 H        -3.595022         0.376278        -1.171388
 H        -1.601812         2.483227        -1.851500
 H        -3.156586         2.761013        -1.264530
 H        -1.349391         3.152075         0.968491
