19
Iteration:  1909
 O         0.410355         0.847342         0.062488
 C        -0.835410         1.016448         0.635966
 C        -1.286740         0.999324         2.166223
 C        -2.578040         1.247046         1.314570
 O        -3.816915         1.634109         1.849417
 C        -2.142314         0.218804         0.221677
 C        -2.558301         0.697235        -1.146353
 C        -2.106066         2.149433        -1.024010
 C        -1.674740         2.233236         0.427608
 H         0.749957        -0.038938         0.248667
 H        -1.143845         0.084090         2.665497
 H        -0.913018         1.804692         2.691887
 H        -4.169815         0.872397         2.453099
 H        -2.175733        -0.803202         0.531247
 H        -1.891395         0.198165        -1.856715
 H        -3.618336         0.485009        -1.214341
 H        -1.201443         2.227951        -1.556696
 H        -2.819224         2.895793        -1.338765
 H        -1.139594         3.020404         0.940438
