19
Iteration:  3000charge 0 multiplicity 1
 O         0.497702         0.685920         0.140522
 C        -0.785916         1.102298         0.745862
 C        -1.291038         0.853886         2.174556
 C        -2.512330         1.244157         1.308955
 O        -3.766677         1.610936         1.809772
 C        -2.098532         0.225602         0.269011
 C        -2.532943         0.607070        -1.145716
 C        -2.236043         2.214655        -0.992259
 C        -1.758497         2.325686         0.417168
 H         0.506686         0.627384        -0.846531
 H        -1.328023        -0.123787         2.694752
 H        -1.105123         1.656810         2.879766
 H        -4.175543         2.303785         1.223480
 H        -2.003077        -0.844721         0.398291
 H        -1.941115         0.197823        -1.999160
 H        -3.572245         0.624267        -1.458845
 H        -1.572724         2.814333        -1.651670
 H        -3.239464         2.835725        -1.112306
 H        -1.674337         3.443953         0.659701
