19
Iteration:  3696
 O         0.454862         0.645694         0.054487
 C        -0.796056         1.001760         0.638104
 C        -1.238590         0.916608         2.207332
 C        -2.481094         1.293456         1.283900
 O        -3.917329         1.589095         1.812984
 C        -2.139401         0.263105         0.214342
 C        -2.488413         0.718119        -1.136521
 C        -2.217467         2.297566        -0.975673
 C        -1.667553         2.285611         0.499916
 H         0.924887         0.384483         0.820402
 H        -1.082863        -0.078597         2.709160
 H        -0.816309         1.755024         2.791099
 H        -4.523988         1.114724         1.191663
 H        -2.117621        -0.818522         0.392886
 H        -1.896297         0.300170        -1.986856
 H        -3.575332         0.617600        -1.236484
 H        -1.515502         2.716236        -1.717675
 H        -3.177726         2.816321        -1.040859
 H        -1.477866         3.295897         0.729059
