19
Iteration:  2274charge 0 multiplicity 1
 O         0.459027         0.709754         0.048099
 C        -0.829607         1.040097         0.657007
 C        -1.288875         0.969772         2.126344
 C        -2.507421         1.388815         1.267771
 O        -3.768528         1.555009         1.806095
 C        -2.195796         0.269831         0.306442
 C        -2.496007         0.707553        -1.083033
 C        -2.208222         2.215544        -0.992984
 C        -1.725796         2.285772         0.421562
 H         0.685361        -0.318785         0.128853
 H        -1.469922         0.012492         2.573753
 H        -0.935204         1.630448         2.911790
 H        -4.146569         0.674843         2.050870
 H        -2.147054        -0.743935         0.690953
 H        -1.669778         0.284851        -1.662577
 H        -3.488667         0.443088        -1.528355
 H        -1.302646         2.366210        -1.655480
 H        -3.025246         2.866874        -1.208994
 H        -1.527926         3.206070         0.899474
