19
Iteration:  1398
 O         0.601124         0.650364         0.074422
 C        -0.740804         0.959992         0.778645
 C        -1.276030         0.912318         2.162489
 C        -2.476289         1.345031         1.262686
 O        -3.814104         1.618748         1.766991
 C        -2.061045         0.264501         0.256557
 C        -2.717562         0.692119        -1.115259
 C        -2.313100         2.197495        -1.031205
 C        -1.715506         2.375619         0.395557
 H         1.240410         1.142306         0.517759
 H        -1.272915        -0.093362         2.548377
 H        -0.922519         1.651578         2.967049
 H        -4.301702         0.676548         1.917796
 H        -2.252537        -0.793176         0.560078
 H        -2.249400         0.092256        -1.866607
 H        -3.803053         0.574204        -1.046244
 H        -1.677299         2.357524        -1.880574
 H        -3.165441         2.832791        -1.145959
 H        -1.576023         3.465206         0.755675
