19
Iteration:  2675charge 0 multiplicity 1
 O         0.478989         0.525745         0.297990
 C        -0.791741         1.063108         0.597719
 C        -1.238086         1.021913         2.075066
 C        -2.509361         1.348704         1.261181
 O        -3.805708         1.617527         1.814326
 C        -2.091779         0.215188         0.211405
 C        -2.468127         0.647714        -1.116089
 C        -2.313191         2.225961        -0.994678
 C        -1.794677         2.418434         0.421098
 H         0.562650         0.483190        -0.733800
 H        -1.083499         0.023668         2.419707
 H        -0.879563         1.800009         2.721700
 H        -4.084987         0.713027         2.353926
 H        -1.914674        -0.838565         0.486343
 H        -1.901925         0.178495        -1.906143
 H        -3.476744         0.456260        -1.477361
 H        -1.735780         2.692748        -1.844751
 H        -3.284873         2.704835        -0.937397
 H        -1.488314         3.378621         0.968897
