19
Iteration:  4029charge 0 multiplicity 1
 O         0.480676         0.775375         0.323972
 C        -0.812490         0.889283         0.680586
 C        -1.333667         1.016164         2.147865
 C        -2.449812         1.375851         1.250872
 O        -3.812425         1.538490         1.798377
 C        -2.103636         0.178693         0.158069
 C        -2.600605         0.700562        -1.171082
 C        -2.217880         2.274935        -1.051680
 C        -1.692474         2.224083         0.351884
 H         0.732329         0.127860        -0.452773
 H        -1.587047         0.157785         2.770074
 H        -0.905360         1.864643         2.694181
 H        -3.450511         1.543434         2.716320
 H        -2.134302        -0.926120         0.423076
 H        -2.029762         0.198977        -1.917398
 H        -3.701796         0.547110        -1.163542
 H        -1.593634         2.648421        -1.859541
 H        -3.115133         2.903502        -1.162972
 H        -1.379728         3.172577         0.907228
