19
Iteration:   396
 O         0.400169         0.721018         0.098029
 C        -0.799285         0.923638         0.719778
 C        -1.250882         0.948138         2.274441
 C        -2.450729         1.308131         1.358889
 O        -3.798573         1.449540         1.658125
 C        -2.131575         0.206242         0.281539
 C        -2.657906         0.796100        -1.133713
 C        -2.218207         2.266788        -1.027081
 C        -1.616949         2.234231         0.386050
 H         0.850914         1.634868        -0.142248
 H        -1.213303        -0.082915         2.667888
 H        -0.797827         1.557706         3.096240
 H        -3.928706         2.468468         1.907357
 H        -2.370211        -0.833966         0.631938
 H        -2.174886         0.296315        -2.010698
 H        -3.695383         0.513664        -1.212699
 H        -1.501047         2.496738        -1.849857
 H        -3.024866         3.028440        -0.896234
 H        -1.264819         3.151255         0.696421
