19
Iteration:  2891
 O         0.525062         0.850020         0.196673
 C        -0.814360         0.899255         0.643523
 C        -1.214576         0.975520         2.210501
 C        -2.539039         1.301909         1.284012
 O        -3.763972         1.680720         1.759936
 C        -2.200311         0.187371         0.266295
 C        -2.615998         0.630619        -1.103077
 C        -2.244391         2.180167        -1.025762
 C        -1.696902         2.254595         0.420608
 H         0.698878         0.655570        -0.696748
 H        -1.168247        -0.040939         2.630207
 H        -0.680727         1.605673         2.922680
 H        -4.470778         0.887229         1.766180
 H        -2.231144        -0.841900         0.577643
 H        -1.977805         0.345469        -1.945444
 H        -3.588079         0.423665        -1.585249
 H        -1.438967         2.337428        -1.672465
 H        -3.012968         2.933960        -1.244991
 H        -1.398274         3.231819         0.906311
