19
Iteration:  3812
 O         0.431994         0.863336        -0.004891
 C        -0.802356         0.884806         0.693029
 C        -1.342091         0.909071         2.212890
 C        -2.538879         1.284400         1.325584
 O        -3.905696         1.548578         1.775345
 C        -2.074029         0.178586         0.280210
 C        -2.560137         0.728367        -1.153995
 C        -2.115974         2.257013        -1.007168
 C        -1.633353         2.246143         0.494684
 H         0.684135         0.002496        -0.184823
 H        -1.379195        -0.007588         2.893566
 H        -0.830825         1.667795         2.809164
 H        -3.970947         2.443990         1.460468
 H        -2.004504        -0.907090         0.597921
 H        -1.960530         0.214920        -1.893625
 H        -3.690775         0.671166        -1.112271
 H        -1.324805         2.584292        -1.665564
 H        -3.030524         2.930055        -1.143282
 H        -1.116576         3.121645         1.074379
