19
Iteration:  4035charge 0 multiplicity 1
 O         0.504933         0.768075         0.298756
 C        -0.809254         0.897603         0.671478
 C        -1.284927         1.030407         2.152985
 C        -2.512517         1.311536         1.247404
 O        -3.803075         1.574995         1.761287
 C        -2.134687         0.165150         0.198621
 C        -2.575913         0.686471        -1.150331
 C        -2.221336         2.255356        -1.029829
 C        -1.681075         2.281750         0.368595
 H         0.731018         0.256295        -0.410308
 H        -1.447607         0.119407         2.763111
 H        -1.049297         1.928766         2.803115
 H        -3.690763         1.357890         2.676725
 H        -2.283503        -0.889493         0.326796
 H        -2.250008         0.150915        -2.123135
 H        -3.643863         0.475887        -1.242639
 H        -1.555269         2.742762        -1.800491
 H        -3.130227         2.890246        -1.024705
 H        -1.269896         3.114910         0.874029
