19
Iteration:  4749
 O         0.497614         0.849037         0.087310
 C        -0.866542         1.057215         0.717352
 C        -1.256874         1.108754         2.206855
 C        -2.529218         1.331153         1.284491
 O        -3.865594         1.722406         1.652213
 C        -2.028901         0.143431         0.433420
 C        -2.491086         0.498939        -1.111374
 C        -2.180851         1.995913        -1.067244
 C        -1.804945         2.206728         0.382118
 H         0.375748         0.181435        -0.545173
 H        -0.899509         0.287219         2.912765
 H        -0.943758         2.062150         2.629305
 H        -4.143291         1.594711         2.595384
 H        -1.978905        -0.887043         0.834750
 H        -1.894492         0.080618        -1.975742
 H        -3.556369         0.582654        -1.159073
 H        -1.356892         2.423807        -1.816393
 H        -3.205871         2.403439        -0.983832
 H        -1.607881         3.203184         0.830353
