19
Iteration:  3871charge 0 multiplicity 1
 O         0.552014         0.662732         0.202572
 C        -0.789727         0.885600         0.680908
 C        -1.333940         1.008476         2.104756
 C        -2.535161         1.328399         1.257766
 O        -3.865716         1.568504         1.851772
 C        -2.023518         0.211595         0.165248
 C        -2.563422         0.807816        -1.226923
 C        -2.260573         2.234046        -0.983801
 C        -1.760515         2.277618         0.399257
 H         0.943009         0.018462         0.931016
 H        -1.278753         0.037800         2.645335
 H        -0.853643         1.918474         2.571831
 H        -3.456188         1.512932         2.803331
 H        -2.252539        -0.830870         0.256881
 H        -2.271534         0.364719        -2.220537
 H        -3.606697         0.652110        -1.392465
 H        -1.454755         2.726325        -1.593422
 H        -3.167796         2.855573        -1.121367
 H        -1.381740         3.174389         0.787699
