19
Iteration:  2277
 O         0.461981         0.697357         0.052471
 C        -0.790160         1.020930         0.675290
 C        -1.265105         0.968917         2.135027
 C        -2.507722         1.372103         1.263617
 O        -3.783538         1.560765         1.804185
 C        -2.194957         0.286418         0.284876
 C        -2.487491         0.711911        -1.090085
 C        -2.207752         2.192857        -0.977792
 C        -1.745156         2.317331         0.410133
 H         0.586943        -0.199284         0.146626
 H        -1.531652        -0.008363         2.516949
 H        -0.949693         1.661607         2.941757
 H        -4.079389         0.732329         2.066415
 H        -2.220565        -0.761717         0.643964
 H        -1.703721         0.196195        -1.688418
 H        -3.526987         0.421189        -1.542093
 H        -1.414264         2.400129        -1.719868
 H        -3.071918         2.872746        -1.089918
 H        -1.561108         3.295147         0.910104
