19
Iteration:   700charge 0 multiplicity 1
 O         0.407906         0.680315         0.128330
 C        -0.855139         0.954322         0.635810
 C        -1.237268         0.905618         2.229241
 C        -2.422361         1.360674         1.384692
 O        -3.725340         1.374701         1.695674
 C        -2.182225         0.330912         0.232356
 C        -2.699567         0.784977        -1.132816
 C        -2.210288         2.247447        -1.003220
 C        -1.637306         2.236957         0.452221
 H         1.038211         1.462561         0.192020
 H        -1.458551        -0.098131         2.576320
 H        -0.729495         1.662120         2.851560
 H        -4.051525         2.367348         1.640374
 H        -2.304655        -0.680502         0.507680
 H        -2.175583         0.296101        -1.972256
 H        -3.775994         0.741319        -1.209902
 H        -1.406798         2.404158        -1.701676
 H        -2.931224         2.970525        -1.053135
 H        -1.196301         3.299021         0.714403
