19
Iteration:  1477
 O         0.344493         0.663843         0.073140
 C        -0.839148         1.065177         0.681639
 C        -1.279204         0.870818         2.111802
 C        -2.544001         1.343007         1.291784
 O        -3.782337         1.677933         1.894681
 C        -2.058849         0.226802         0.225813
 C        -2.444352         0.592198        -1.140146
 C        -2.250644         2.225007        -1.021696
 C        -1.675504         2.323224         0.394144
 H         0.916499         1.323353         0.392467
 H        -1.394490        -0.085686         2.519621
 H        -0.876940         1.725034         2.777275
 H        -4.046930         0.796259         2.371986
 H        -2.132152        -0.764780         0.576490
 H        -1.868995         0.021450        -1.897501
 H        -3.457815         0.345039        -1.428272
 H        -1.550265         2.503332        -1.789005
 H        -3.148402         2.799135        -1.127870
 H        -1.337742         3.290958         0.905258
