19
Iteration:  3821
 O         0.474511         0.865485        -0.007834
 C        -0.816747         0.861861         0.706123
 C        -1.255704         0.879027         2.212102
 C        -2.542643         1.400792         1.280345
 O        -3.907074         1.501076         1.764513
 C        -2.130934         0.248970         0.304586
 C        -2.524084         0.683931        -1.113110
 C        -2.148604         2.247872        -0.966736
 C        -1.601372         2.238648         0.461085
 H         0.619005        -0.030721         0.011336
 H        -1.538705        -0.073163         2.616763
 H        -0.994914         1.673770         2.906777
 H        -4.207426         2.404660         1.698610
 H        -2.378239        -0.839998         0.441470
 H        -2.079057         0.227428        -1.998473
 H        -3.655162         0.580616        -1.345918
 H        -1.390516         2.562618        -1.689748
 H        -2.964904         2.936004        -1.143958
 H        -1.244483         3.133906         1.091077
