19
Iteration:  3356charge 0 multiplicity 1
 O         0.519232         0.719939         0.228635
 C        -0.911291         0.871107         0.628684
 C        -1.222953         0.896206         2.115463
 C        -2.519464         1.448784         1.364375
 O        -3.795020         1.507363         1.868266
 C        -2.213017         0.255025         0.203107
 C        -2.489477         0.750493        -1.164255
 C        -2.267154         2.233465        -0.990293
 C        -1.666876         2.226817         0.394307
 H         0.745267         1.630387        -0.187972
 H        -1.296055        -0.013776         2.739388
 H        -0.775454         1.708448         2.624244
 H        -4.375236         1.915594         1.095061
 H        -2.372068        -0.814168         0.347816
 H        -1.746325         0.195649        -1.785804
 H        -3.413768         0.362195        -1.572177
 H        -1.514765         2.489851        -1.732526
 H        -3.198920         2.755589        -1.184462
 H        -1.156590         3.116426         0.812027
