19
Iteration:   835charge 0 multiplicity 1
 O         0.394831         0.827107         0.029697
 C        -0.807201         0.882658         0.666962
 C        -1.252822         0.904090         2.168809
 C        -2.517379         1.370581         1.337673
 O        -3.784275         1.547779         1.821247
 C        -2.196703         0.268886         0.241466
 C        -2.573291         0.684623        -1.163478
 C        -2.204100         2.313221        -0.965817
 C        -1.568387         2.258887         0.443832
 H         0.807946         0.174192         0.575456
 H        -1.420570        -0.115154         2.566071
 H        -0.738503         1.593613         2.763498
 H        -4.343443         0.665757         1.641978
 H        -2.399214        -0.831483         0.616172
 H        -1.798210         0.199431        -1.813753
 H        -3.674560         0.581427        -1.566379
 H        -1.497405         2.690228        -1.722143
 H        -3.145180         2.859832        -1.026218
 H        -1.120577         3.173222         0.903331
