19
Iteration:  4282charge 0 multiplicity 1
 O         0.525653         0.710990         0.345081
 C        -0.800248         0.968470         0.590816
 C        -1.259659         1.229729         2.069627
 C        -2.533383         1.276814         1.328588
 O        -3.809459         1.544635         1.956602
 C        -2.172174         0.157544         0.303949
 C        -2.559349         0.573163        -1.148949
 C        -2.238190         2.059495        -1.101945
 C        -1.695171         2.318802         0.270632
 H         0.817951         1.162119        -0.514242
 H        -1.156304         0.430870         2.881964
 H        -0.972331         2.170959         2.531599
 H        -4.327012         1.959046         1.186538
 H        -2.164878        -0.933852         0.472039
 H        -1.873532         0.233473        -1.867438
 H        -3.631659         0.531209        -1.449514
 H        -1.567023         2.375427        -1.929006
 H        -3.077096         2.812886        -1.297338
 H        -1.406757         3.320830         0.734464
