19
Iteration:   870charge 0 multiplicity 1
 O         0.479142         0.735072         0.184491
 C        -0.772259         1.033386         0.610454
 C        -1.229506         0.911351         2.073703
 C        -2.530672         1.222069         1.275334
 O        -3.745441         1.568777         1.800726
 C        -2.113531         0.241432         0.209635
 C        -2.731587         0.733833        -1.107908
 C        -2.183857         2.332658        -0.984420
 C        -1.692338         2.300178         0.443904
 H         0.884643         0.013797         0.706227
 H        -1.246886        -0.026460         2.540336
 H        -0.894928         1.611405         2.787393
 H        -4.380901         0.758513         2.038252
 H        -2.000202        -0.886234         0.362724
 H        -2.414461         0.157328        -1.993652
 H        -3.877731         0.618447        -1.099088
 H        -1.430752         2.478071        -1.778514
 H        -2.984356         3.136188        -1.151429
 H        -1.343678         3.161792         0.881812
