19
Iteration:  4777charge 0 multiplicity 1
 O         0.429421         0.840390         0.160506
 C        -0.860967         1.029290         0.689506
 C        -1.275767         1.148853         2.216248
 C        -2.485004         1.429417         1.251269
 O        -3.817418         1.629138         1.771027
 C        -2.094451         0.218171         0.397084
 C        -2.537839         0.456757        -1.109259
 C        -2.205286         2.013120        -1.103185
 C        -1.691667         2.273392         0.313748
 H         0.521382         0.009231        -0.166755
 H        -1.152663         0.217441         2.776703
 H        -0.836160         2.063636         2.645950
 H        -4.133667         0.778093         2.107415
 H        -2.123029        -0.789123         0.818108
 H        -1.739738         0.140328        -1.736529
 H        -3.565179         0.154237        -1.409390
 H        -1.441084         2.196449        -1.845161
 H        -2.944428         2.816374        -1.407225
 H        -1.567525         3.259885         0.757892
