19
Iteration:  4871charge 0 multiplicity 1
 O         0.532083         0.737921         0.187300
 C        -0.838169         1.057424         0.651459
 C        -1.259192         1.101813         2.189904
 C        -2.507130         1.397530         1.342327
 O        -3.880182         1.610978         1.694437
 C        -2.063244         0.232145         0.294638
 C        -2.539503         0.453726        -1.073605
 C        -2.282490         1.993265        -1.020944
 C        -1.665990         2.253028         0.342617
 H         0.871267         1.653001        -0.253318
 H        -1.214768         0.108963         2.553855
 H        -0.949775         1.922413         2.885990
 H        -4.212889         2.506306         1.960597
 H        -2.202850        -0.721552         0.815717
 H        -1.910187        -0.040138        -1.806086
 H        -3.587166         0.204067        -1.099095
 H        -1.637894         2.265100        -1.889138
 H        -3.147748         2.550947        -1.250333
 H        -1.566951         3.266345         0.567387
