19
Iteration:  1711charge 0 multiplicity 1
 O         0.528789         0.828967         0.194465
 C        -0.760660         0.967010         0.655870
 C        -1.199653         0.933734         2.176157
 C        -2.487143         1.293644         1.226437
 O        -3.781933         1.631792         1.666126
 C        -2.081516         0.251120         0.293791
 C        -2.726567         0.651283        -1.039625
 C        -2.274838         2.199206        -1.020717
 C        -1.663074         2.284800         0.416678
 H         0.618043        -0.194828         0.095145
 H        -1.242930        -0.057008         2.819950
 H        -0.928264         1.752882         2.798362
 H        -4.341067         0.712834         1.759421
 H        -2.254670        -0.704105         0.610349
 H        -2.512038         0.168948        -1.993545
 H        -3.811484         0.623903        -0.939495
 H        -1.578781         2.402328        -1.803458
 H        -3.152455         2.872648        -1.077073
 H        -1.412965         3.267587         0.763764
