19
Iteration:   555charge 0 multiplicity 1
 O         0.553886         0.794604         0.087025
 C        -0.793081         1.003634         0.721507
 C        -1.143941         0.925688         2.208606
 C        -2.514837         1.272822         1.322707
 O        -3.911696         1.465149         1.645550
 C        -2.131092         0.310676         0.295930
 C        -2.712942         0.786674        -1.080063
 C        -2.174709         2.198530        -1.004698
 C        -1.635057         2.210966         0.446169
 H         0.302678        -0.041074        -0.452871
 H        -1.036348        -0.069410         2.663396
 H        -0.783349         1.735087         2.906372
 H        -4.054908         2.310452         2.010231
 H        -2.315555        -0.689098         0.574001
 H        -2.342450         0.151303        -1.876733
 H        -3.806226         0.701970        -1.180545
 H        -1.596374         2.410439        -1.852303
 H        -3.024519         2.812502        -1.117973
 H        -1.344269         3.186073         0.989982
