19
Iteration:   890
 O         0.421105         0.822108         0.243787
 C        -0.848920         0.933860         0.611182
 C        -1.214302         0.944800         2.159691
 C        -2.452867         1.252801         1.298471
 O        -3.677063         1.594715         1.722199
 C        -2.097481         0.168943         0.108870
 C        -2.701700         0.848303        -1.127351
 C        -2.254509         2.241358        -0.965298
 C        -1.685294         2.209296         0.446935
 H         0.599979        -0.004540         0.590152
 H        -0.953814        -0.005871         2.728385
 H        -0.762311         1.744701         2.687809
 H        -4.033944         0.836368         2.305375
 H        -2.374916        -0.946535         0.294915
 H        -2.432947         0.419899        -2.125568
 H        -3.889788         0.867316        -1.090546
 H        -1.462810         2.412062        -1.691219
 H        -3.099861         2.857859        -1.177362
 H        -1.427222         3.140117         0.936817
