19
Iteration:  4505
 O         0.505326         0.748451         0.269660
 C        -0.816394         1.046270         0.707061
 C        -1.235745         1.213767         2.201089
 C        -2.501345         1.310736         1.314279
 O        -3.850452         1.594696         1.675184
 C        -2.010354         0.182659         0.338322
 C        -2.601642         0.526522        -1.091160
 C        -2.333168         2.069034        -1.052890
 C        -1.670463         2.208809         0.255496
 H         0.620375         0.861138        -0.773391
 H        -1.371571         0.328840         2.830191
 H        -0.992553         2.254028         2.559600
 H        -3.783148         2.085379         2.488923
 H        -2.246015        -0.857581         0.628149
 H        -2.088874        -0.001971        -1.945973
 H        -3.622658         0.221580        -1.286321
 H        -1.531427         2.196192        -1.770110
 H        -3.190259         2.795603        -1.242759
 H        -1.240448         3.102922         0.641387
