19
Iteration:   138
 O         0.570935         0.653078         0.162964
 C        -0.819527         0.902521         0.649631
 C        -1.263065         0.884146         2.248356
 C        -2.432615         1.383659         1.465229
 O        -3.909058         1.439362         1.686661
 C        -2.171478         0.303214         0.248488
 C        -2.575520         0.783255        -1.200843
 C        -2.365641         2.315451        -1.028992
 C        -1.573033         2.239272         0.379568
 H         0.878544         1.519183        -0.374767
 H        -1.284902        -0.179856         2.623702
 H        -0.808362         1.627295         2.888343
 H        -4.106786         1.977585         2.598700
 H        -2.516028        -0.769214         0.513207
 H        -1.810751         0.376091        -1.890095
 H        -3.573151         0.465079        -1.611003
 H        -1.598699         2.829645        -1.808622
 H        -3.348577         2.890798        -0.908475
 H        -1.010460         3.205739         0.546762
