19
Iteration:  4903
 O         0.417860         0.789129         0.204453
 C        -0.849277         1.010881         0.657799
 C        -1.249132         1.221244         2.211852
 C        -2.531893         1.351433         1.357228
 O        -3.800123         1.608970         1.676996
 C        -2.114491         0.139932         0.353067
 C        -2.451217         0.535494        -1.072109
 C        -2.256304         2.064795        -1.084089
 C        -1.678576         2.206834         0.305369
 H         0.366160         0.856646        -0.712852
 H        -1.145040         0.270699         2.769347
 H        -0.966489         2.144450         2.815902
 H        -4.033439         1.684832         2.602886
 H        -2.310071        -0.856030         0.760591
 H        -1.834505         0.029495        -1.838866
 H        -3.337710         0.064925        -1.362796
 H        -1.450103         2.302287        -1.891448
 H        -3.193470         2.757343        -1.222710
 H        -1.407853         3.183156         0.537676
