19
Iteration:    65charge 0 multiplicity 1
 O         0.507020         0.846144         0.140461
 C        -0.856332         0.948744         0.579669
 C        -1.350653         0.876908         2.118232
 C        -2.518309         1.338871         1.276088
 O        -3.841066         1.395892         1.844909
 C        -2.210193         0.274370         0.225468
 C        -2.588108         0.736923        -1.116280
 C        -2.152345         2.305481        -0.934094
 C        -1.540240         2.257305         0.435446
 H         0.964560        -0.033947         0.212484
 H        -1.387804        -0.218500         2.386928
 H        -1.022134         1.626358         2.828739
 H        -4.166924         2.374429         1.873584
 H        -2.392457        -0.752958         0.499726
 H        -2.051838         0.240567        -1.948181
 H        -3.658377         0.613369        -1.409737
 H        -1.441193         2.482432        -1.649465
 H        -2.937841         3.035098        -1.039787
 H        -0.967561         3.069792         0.776781
