19
Iteration:  4732charge 0 multiplicity 1
 O         0.476308         0.879420         0.182811
 C        -0.793355         1.032811         0.694830
 C        -1.214555         1.123449         2.187334
 C        -2.515813         1.302538         1.312307
 O        -3.833626         1.684959         1.625879
 C        -2.084814         0.173482         0.322307
 C        -2.527499         0.450977        -1.049565
 C        -2.294219         2.066257        -1.023661
 C        -1.719984         2.234172         0.357550
 H         0.312747         0.328385        -0.509337
 H        -1.356533         0.213848         2.714299
 H        -0.921955         1.982684         2.842723
 H        -3.969160         1.720228         2.598371
 H        -2.171645        -0.884561         0.625189
 H        -1.784312        -0.035022        -1.680142
 H        -3.612192         0.099186        -1.229064
 H        -1.569669         2.188816        -1.783011
 H        -3.057440         2.678719        -1.501710
 H        -1.347768         3.256898         0.677563
