19
Iteration:  4445
 O         0.460504         0.807221         0.228788
 C        -0.819561         1.050682         0.653379
 C        -1.272428         1.145668         2.155253
 C        -2.533682         1.279479         1.300398
 O        -3.813313         1.630054         1.843228
 C        -2.078632         0.144977         0.363671
 C        -2.515353         0.481655        -1.078442
 C        -2.171016         2.055557        -1.157916
 C        -1.767809         2.214097         0.295718
 H         0.398206         1.074225        -0.636412
 H        -1.222537         0.315353         2.905790
 H        -0.964582         2.014446         2.739903
 H        -3.848813         2.542606         1.564062
 H        -2.191413        -0.876177         0.746227
 H        -2.075348        -0.093268        -1.892429
 H        -3.606779         0.573728        -1.216832
 H        -1.340951         2.376194        -1.886608
 H        -3.129438         2.614224        -1.385929
 H        -1.469628         3.163284         0.843149
