19
Iteration:  3956
 O         0.362771         0.845159        -0.016559
 C        -0.824513         0.984789         0.745475
 C        -1.415524         0.970729         2.283513
 C        -2.533847         1.275495         1.319257
 O        -3.753695         1.578022         1.754836
 C        -2.056140         0.141387         0.250243
 C        -2.550774         0.683971        -1.126643
 C        -2.099530         2.230359        -1.001233
 C        -1.583273         2.222334         0.474839
 H         0.526909        -0.046214        -0.242194
 H        -1.477751         0.088219         2.985283
 H        -0.945289         1.834875         2.724481
 H        -4.292963         1.789266         1.032519
 H        -2.216485        -0.943477         0.393247
 H        -2.064436         0.160351        -1.981315
 H        -3.657667         0.687666        -1.117935
 H        -1.451949         2.718516        -1.735791
 H        -3.036063         2.869722        -0.953236
 H        -1.361181         3.137532         1.047443
