19
Iteration:    19charge 0 multiplicity 1
 O         0.503476         0.669704         0.049555
 C        -0.849400         1.034696         0.576648
 C        -1.231250         0.895534         2.074391
 C        -2.551149         1.202924         1.320343
 O        -3.946453         1.504605         1.829835
 C        -2.097375         0.219245         0.224524
 C        -2.591952         0.815063        -1.130827
 C        -2.053435         2.274211        -0.929427
 C        -1.767240         2.292352         0.546426
 H         1.027271         0.789830         0.793991
 H        -1.244833        -0.147151         2.550647
 H        -0.777443         1.757927         2.580648
 H        -3.971740         2.394017         2.127358
 H        -2.081995        -0.913028         0.232578
 H        -2.044708         0.360121        -1.993307
 H        -3.686696         0.720116        -1.415940
 H        -1.120730         2.360365        -1.475592
 H        -2.749131         2.998369        -1.372744
 H        -1.568752         3.245660         1.023291
