19
Iteration:  1483
 O         0.323161         0.675606         0.127239
 C        -0.846435         1.019631         0.688487
 C        -1.249369         0.876226         2.104907
 C        -2.501105         1.357054         1.287525
 O        -3.753277         1.658764         1.849627
 C        -2.080521         0.283865         0.227374
 C        -2.479232         0.596001        -1.166731
 C        -2.254535         2.216283        -1.036971
 C        -1.671824         2.331028         0.415586
 H         1.007126         1.425950         0.317796
 H        -1.270902        -0.209895         2.565814
 H        -1.002980         1.547218         2.851720
 H        -3.975589         0.887927         2.222783
 H        -2.058305        -0.858888         0.592413
 H        -1.942045        -0.065225        -1.857779
 H        -3.593202         0.328007        -1.169195
 H        -1.606505         2.598783        -1.887481
 H        -3.260547         2.741428        -1.121308
 H        -1.420407         3.272942         0.918115
