19
Iteration:  4101charge 0 multiplicity 1
 O         0.482604         0.688914         0.150819
 C        -0.827264         0.986711         0.650665
 C        -1.281224         1.074755         2.266881
 C        -2.574071         1.277970         1.296623
 O        -3.830450         1.502377         1.728560
 C        -2.120439         0.207790         0.266923
 C        -2.575736         0.667290        -1.101302
 C        -2.216496         2.198932        -0.992788
 C        -1.576714         2.252049         0.386321
 H         0.750745         1.378021        -0.623283
 H        -1.442647         0.095587         2.714045
 H        -1.009714         1.894539         3.037597
 H        -4.188043         2.435877         1.695272
 H        -2.120023        -0.848002         0.554090
 H        -1.813500         0.098987        -1.816117
 H        -3.582715         0.326999        -1.380076
 H        -1.656654         2.618496        -1.887425
 H        -3.061714         2.909051        -1.068481
 H        -1.245372         3.203700         0.738198
