19
Iteration:  2860
 O         0.451053         0.781673         0.160435
 C        -0.805750         0.932470         0.699467
 C        -1.229496         0.986831         2.214248
 C        -2.575509         1.333439         1.259733
 O        -3.792676         1.663326         1.789083
 C        -2.125464         0.248814         0.260573
 C        -2.474610         0.609212        -1.200735
 C        -2.268603         2.176304        -0.993840
 C        -1.660254         2.239617         0.426485
 H         0.493603         0.333596        -0.755813
 H        -1.111680        -0.048930         2.643343
 H        -0.807990         1.761773         2.898357
 H        -4.421902         1.022514         1.923767
 H        -2.167074        -0.759467         0.668622
 H        -1.867121         0.215938        -2.018397
 H        -3.605749         0.477815        -1.361573
 H        -1.747150         2.801207        -1.736990
 H        -3.237290         2.647208        -0.968838
 H        -1.380449         3.288460         0.837701
