19
Iteration:  1130charge 0 multiplicity 1
 O         0.348205         0.725249         0.177171
 C        -0.912059         0.848979         0.635735
 C        -1.297900         1.015380         2.105549
 C        -2.487961         1.248293         1.277232
 O        -3.696992         1.606316         1.871128
 C        -2.194969         0.237670         0.188566
 C        -2.370536         0.804546        -1.180277
 C        -2.197586         2.265440        -0.973944
 C        -1.758445         2.256777         0.452696
 H         0.269894         0.372592        -0.669284
 H        -1.372096        -0.003536         2.735749
 H        -0.961282         1.913169         2.519224
 H        -3.770885         0.964477         2.731469
 H        -2.242308        -0.871399         0.451517
 H        -1.691383         0.270376        -1.807901
 H        -3.305562         0.474718        -1.555149
 H        -1.432361         2.762130        -1.560543
 H        -3.108638         2.792411        -1.261761
 H        -1.173929         3.073603         0.889899
