19
Iteration:   447charge 0 multiplicity 1
 O         0.450057         0.626409         0.153837
 C        -0.790823         0.976111         0.661323
 C        -1.248807         0.942540         2.177301
 C        -2.479406         1.318760         1.368939
 O        -3.807436         1.493547         1.764754
 C        -2.173978         0.277666         0.231988
 C        -2.531382         0.760946        -1.180210
 C        -2.382181         2.287461        -1.072306
 C        -1.630880         2.299508         0.372014
 H         1.126264         0.709360         0.822313
 H        -1.256008         0.012393         2.718535
 H        -0.842368         1.763216         2.779860
 H        -3.806365         1.758453         2.625214
 H        -2.134333        -0.754967         0.375819
 H        -1.775758         0.276802        -1.799761
 H        -3.550578         0.440824        -1.423322
 H        -1.753984         2.678842        -1.933352
 H        -3.375172         2.744798        -0.988138
 H        -1.069371         3.262479         0.717531
