19
Iteration:  2646charge 0 multiplicity 1
 O         0.509120         0.750686         0.257708
 C        -0.765743         0.902028         0.735060
 C        -1.249714         1.012480         2.206485
 C        -2.463101         1.354440         1.302752
 O        -3.770846         1.645435         1.755854
 C        -2.233910         0.139065         0.201330
 C        -2.530636         0.726966        -1.173909
 C        -2.375939         2.231268        -1.064806
 C        -1.654935         2.243063         0.351969
 H         0.497695         0.328800        -0.663082
 H        -1.079755         0.018161         2.678892
 H        -0.870521         1.868887         2.824424
 H        -3.981600         0.839480         2.327698
 H        -2.369804        -0.896651         0.471173
 H        -1.681136         0.330363        -1.912719
 H        -3.533836         0.529927        -1.523969
 H        -1.954108         2.716871        -1.946699
 H        -3.287317         2.747116        -0.747602
 H        -1.260409         3.048463         0.881066
