19
Iteration:  1906
 O         0.409028         0.844157         0.063327
 C        -0.848582         1.003646         0.660148
 C        -1.260096         0.995579         2.181298
 C        -2.556082         1.268361         1.320806
 O        -3.850288         1.627171         1.844279
 C        -2.108750         0.225215         0.215662
 C        -2.570031         0.697333        -1.145144
 C        -2.122628         2.140166        -1.049553
 C        -1.659220         2.252492         0.423023
 H         0.823027        -0.096611         0.241491
 H        -1.227896         0.031054         2.683318
 H        -0.797442         1.777088         2.790922
 H        -4.186686         0.866943         2.434176
 H        -2.212116        -0.862402         0.460744
 H        -2.004891         0.170870        -1.916407
 H        -3.617586         0.514005        -1.226686
 H        -1.218379         2.274473        -1.579901
 H        -2.844657         2.906991        -1.336651
 H        -1.154967         3.071223         0.955736
