19
Iteration:  4056charge 0 multiplicity 1
 O         0.527918         0.741077         0.251746
 C        -0.768702         1.041565         0.687802
 C        -1.214977         0.944358         2.126513
 C        -2.491501         1.259341         1.370027
 O        -3.870571         1.698088         1.677258
 C        -2.150450         0.215172         0.254175
 C        -2.603736         0.719460        -1.111322
 C        -2.257710         2.182774        -0.978851
 C        -1.692064         2.208183         0.403719
 H         0.529545         0.367287        -0.736524
 H        -1.074157        -0.034457         2.632127
 H        -0.801268         1.811475         2.693750
 H        -4.338175         0.815533         1.661882
 H        -2.036573        -0.823599         0.530810
 H        -1.909533         0.194633        -1.872072
 H        -3.621819         0.438800        -1.456547
 H        -1.553795         2.500779        -1.781173
 H        -3.076638         2.893525        -1.138708
 H        -1.483929         3.142461         0.895909
