19
Iteration:   428charge 0 multiplicity 1
 O         0.457176         0.560202         0.103950
 C        -0.763442         0.994789         0.646750
 C        -1.197159         0.997521         2.098646
 C        -2.518104         1.350250         1.266430
 O        -3.924276         1.550821         1.718771
 C        -1.996294         0.183466         0.225874
 C        -2.563393         0.715725        -1.137895
 C        -2.262777         2.249288        -0.896223
 C        -1.739448         2.313013         0.474946
 H         0.955958         1.122592         0.626723
 H        -1.161818        -0.014915         2.402672
 H        -0.669931         1.732321         2.713814
 H        -3.884212         2.027957         2.485741
 H        -2.240738        -0.817909         0.562790
 H        -2.076848         0.421202        -2.075788
 H        -3.585663         0.460881        -1.071350
 H        -1.645605         2.698339        -1.734892
 H        -3.198345         2.873105        -0.777171
 H        -1.534375         3.232761         0.860216
