19
Iteration:   997
 O         0.376488         0.779813         0.120634
 C        -0.883233         0.936378         0.705838
 C        -1.229341         0.872098         2.217784
 C        -2.475362         1.371528         1.339211
 O        -3.738553         1.531311         1.863264
 C        -2.177074         0.223761         0.238932
 C        -2.536175         0.733603        -1.202809
 C        -2.233098         2.336629        -1.079093
 C        -1.600821         2.311126         0.352018
 H         0.498394        -0.086557         0.359858
 H        -1.506045        -0.213625         2.388336
 H        -0.926043         1.548995         2.989572
 H        -4.203368         0.639257         2.000188
 H        -2.313268        -0.817436         0.541450
 H        -1.836614         0.284909        -1.904568
 H        -3.540078         0.510183        -1.436716
 H        -1.512853         2.738809        -1.825339
 H        -3.157625         2.905415        -1.198849
 H        -1.085417         3.275655         0.791233
