19
Iteration:   702charge 0 multiplicity 1
 O         0.412434         0.674185         0.143785
 C        -0.844740         0.964624         0.642384
 C        -1.249500         0.912774         2.228145
 C        -2.422532         1.341239         1.362970
 O        -3.719291         1.372054         1.701131
 C        -2.172966         0.341460         0.234720
 C        -2.709064         0.789847        -1.128735
 C        -2.219602         2.249887        -0.998436
 C        -1.638659         2.247525         0.445215
 H         0.961199         1.412319         0.140547
 H        -1.440805        -0.100352         2.602093
 H        -0.727939         1.613593         2.796901
 H        -3.992117         2.378679         1.657410
 H        -2.308389        -0.757189         0.454302
 H        -2.146838         0.305136        -1.965551
 H        -3.826651         0.728471        -1.210672
 H        -1.358359         2.376084        -1.709374
 H        -2.976804         3.022726        -1.070120
 H        -1.189299         3.269208         0.661136
