19
Iteration:   387charge 0 multiplicity 1
 O         0.429509         0.775878         0.100424
 C        -0.829600         0.846634         0.701200
 C        -1.226735         0.929188         2.207174
 C        -2.492695         1.399238         1.302919
 O        -3.844655         1.428139         1.726623
 C        -2.151149         0.212654         0.255818
 C        -2.645419         0.754648        -1.095173
 C        -2.150919         2.211250        -1.011360
 C        -1.553235         2.281816         0.432672
 H         0.818136         1.670680        -0.250385
 H        -1.594732        -0.079769         2.633721
 H        -0.742902         1.619348         2.962458
 H        -4.113082         2.441531         1.831479
 H        -2.345975        -0.891722         0.580248
 H        -2.210326         0.187289        -1.970715
 H        -3.773865         0.715465        -1.197652
 H        -1.680635         2.602722        -1.872050
 H        -3.071590         2.810948        -1.025109
 H        -1.042450         3.193079         0.865073
