19
Iteration:  3867
 O         0.501485         0.671184         0.211457
 C        -0.769157         0.905651         0.687604
 C        -1.314898         1.003483         2.105397
 C        -2.521925         1.325519         1.287549
 O        -3.865201         1.558191         1.840756
 C        -2.041430         0.200610         0.143170
 C        -2.549538         0.790382        -1.222744
 C        -2.244624         2.250956        -0.992996
 C        -1.763240         2.272579         0.392062
 H         0.834312         0.063974         0.858506
 H        -1.176904         0.003626         2.613465
 H        -0.784922         1.809893         2.579156
 H        -3.550156         1.633117         2.708570
 H        -2.306153        -0.877344         0.260421
 H        -2.119765         0.380571        -2.164279
 H        -3.684684         0.578039        -1.199742
 H        -1.510473         2.717484        -1.625508
 H        -3.118817         2.953435        -1.151820
 H        -1.308503         3.248769         0.789642
