19
Iteration:  3271
 O         0.520942         0.842605         0.187535
 C        -0.895010         1.000316         0.640787
 C        -1.306242         0.888147         2.135738
 C        -2.503023         1.264099         1.353614
 O        -3.816800         1.545453         1.786110
 C        -2.242924         0.184642         0.248012
 C        -2.658898         0.731252        -1.136928
 C        -2.141372         2.238384        -0.943477
 C        -1.496497         2.252514         0.410183
 H         0.749257         0.530705        -0.710012
 H        -1.255075        -0.070058         2.761623
 H        -0.988759         1.793268         2.657884
 H        -4.347495         1.307037         1.058045
 H        -2.502492        -0.804574         0.698689
 H        -1.884265         0.272952        -1.804458
 H        -3.664676         0.578880        -1.510705
 H        -1.481655         2.522489        -1.822791
 H        -2.913047         3.000409        -0.939926
 H        -1.048449         3.123599         0.858386
