19
Iteration:  4935charge 0 multiplicity 1
 O         0.532539         0.749368         0.292981
 C        -0.779161         1.068373         0.668244
 C        -1.217562         1.176583         2.127912
 C        -2.592254         1.396848         1.286872
 O        -3.830817         1.648377         1.833797
 C        -2.080435         0.161026         0.330159
 C        -2.467720         0.517941        -1.086720
 C        -2.278543         2.075349        -1.180662
 C        -1.808364         2.278512         0.262049
 H         0.590153        -0.015283        -0.387304
 H        -1.127810         0.168937         2.595890
 H        -0.939559         1.931270         2.928102
 H        -4.116991         0.876640         2.357183
 H        -2.370311        -0.841812         0.656463
 H        -1.900559        -0.002020        -1.925205
 H        -3.461903         0.171021        -1.060545
 H        -1.415669         2.325150        -1.929325
 H        -3.171101         2.819040        -1.322668
 H        -1.621934         3.294337         0.479143
