19
Iteration:  2660
 O         0.490173         0.626104         0.288404
 C        -0.830829         0.978128         0.656899
 C        -1.222136         0.999852         2.148889
 C        -2.500307         1.325810         1.345320
 O        -3.785635         1.608541         1.791109
 C        -2.043297         0.295766         0.267107
 C        -2.507796         0.715725        -1.238689
 C        -2.419195         2.251375        -1.033949
 C        -1.676623         2.248003         0.362134
 H         0.429292         0.320146        -0.595660
 H        -1.351430         0.066115         2.761351
 H        -0.782244         1.808009         2.778009
 H        -4.100026         0.911163         2.329599
 H        -2.275923        -0.778333         0.486761
 H        -1.825277         0.359525        -2.020985
 H        -3.497332         0.193652        -1.488274
 H        -1.709542         2.715840        -1.714502
 H        -3.415846         2.759816        -1.155057
 H        -1.336324         3.291709         0.570830
