19
Iteration:  3593charge 0 multiplicity 1
 O         0.475104         0.626325         0.231326
 C        -0.784195         0.979838         0.641421
 C        -1.315784         0.999325         2.170475
 C        -2.496526         1.352653         1.256499
 O        -3.843227         1.363485         1.973149
 C        -2.249957         0.277199         0.184490
 C        -2.598799         0.766734        -1.201199
 C        -2.176299         2.297049        -1.060594
 C        -1.538412         2.320435         0.336457
 H         1.068684         1.381200         0.353487
 H        -1.536169         0.004356         2.564398
 H        -0.880565         1.683418         2.941289
 H        -4.557903         1.745288         1.490707
 H        -2.288689        -0.762218         0.463613
 H        -1.984967         0.321380        -1.942200
 H        -3.542600         0.329955        -1.470340
 H        -1.534214         2.509499        -1.910183
 H        -3.031790         3.010562        -0.965963
 H        -0.902198         3.182664         0.590513
