19
Iteration:   450charge 0 multiplicity 1
 O         0.444713         0.634232         0.145083
 C        -0.790294         0.987590         0.663687
 C        -1.276517         0.954501         2.188255
 C        -2.460758         1.293056         1.352740
 O        -3.769169         1.480073         1.762837
 C        -2.216902         0.285793         0.241704
 C        -2.541872         0.766641        -1.183274
 C        -2.361637         2.272214        -1.094459
 C        -1.620178         2.321685         0.394072
 H         1.062195         0.724696         0.991374
 H        -1.284417        -0.014358         2.637116
 H        -0.856560         1.788160         2.746262
 H        -3.769528         1.787435         2.775926
 H        -2.235648        -0.810512         0.331177
 H        -1.695990         0.307429        -1.725261
 H        -3.493871         0.384911        -1.453456
 H        -1.837385         2.658690        -2.038805
 H        -3.363746         2.760700        -0.936964
 H        -1.119465         3.174453         0.692924
