19
Iteration:  2859charge 0 multiplicity 1
 O         0.458229         0.769126         0.157809
 C        -0.804037         0.950553         0.698118
 C        -1.224350         0.984940         2.222801
 C        -2.575622         1.336790         1.254741
 O        -3.792414         1.659732         1.788721
 C        -2.123861         0.238690         0.258303
 C        -2.480347         0.617547        -1.207010
 C        -2.272564         2.176972        -0.994792
 C        -1.660622         2.248024         0.434999
 H         0.483695         0.327570        -0.743245
 H        -1.145939        -0.055793         2.632713
 H        -0.816701         1.771414         2.898595
 H        -4.427525         1.049228         1.947249
 H        -2.178040        -0.767543         0.653526
 H        -1.821297         0.194568        -1.995882
 H        -3.604717         0.444531        -1.344657
 H        -1.757801         2.751903        -1.736518
 H        -3.252915         2.659523        -1.005309
 H        -1.429163         3.301224         0.856472
