19
Iteration:  3479charge 0 multiplicity 1
 O         0.463199         0.609278         0.208235
 C        -0.782963         1.042235         0.587417
 C        -1.341770         1.021479         2.130176
 C        -2.528289         1.277006         1.259592
 O        -3.751263         1.502698         1.990259
 C        -2.127137         0.177275         0.210122
 C        -2.527634         0.778103        -1.199189
 C        -2.258075         2.293073        -1.081123
 C        -1.703468         2.280536         0.401019
 H         1.053215         0.379292         0.962457
 H        -1.187586         0.034358         2.621581
 H        -1.116291         1.843018         2.806178
 H        -4.325222         1.758405         1.155123
 H        -1.889297        -0.892665         0.439736
 H        -2.148286         0.474086        -2.184219
 H        -3.563117         0.547438        -1.338204
 H        -1.367984         2.535709        -1.734647
 H        -3.023385         3.020391        -1.192547
 H        -1.590074         3.238829         0.907610
