19
Iteration:  3748
 O         0.480278         0.768125         0.221199
 C        -0.749857         0.955613         0.717577
 C        -1.346889         0.920441         2.108739
 C        -2.534669         1.356093         1.224831
 O        -3.797650         1.465617         1.968743
 C        -2.177767         0.271716         0.221857
 C        -2.613466         0.731393        -1.194628
 C        -2.227234         2.289710        -1.084563
 C        -1.490095         2.251652         0.369495
 H         0.968504         0.148468         0.770985
 H        -1.613764        -0.160439         2.388005
 H        -0.985227         1.664178         2.801329
 H        -4.643125         1.341900         1.384214
 H        -2.339661        -0.788885         0.517027
 H        -1.975860         0.310028        -2.031743
 H        -3.675985         0.704191        -1.548428
 H        -1.746416         2.722947        -1.962798
 H        -3.192808         2.939794        -1.042896
 H        -1.029948         3.233106         0.644211
