19
Iteration:  1138
 O         0.419958         0.702314         0.167418
 C        -0.864436         0.885716         0.675445
 C        -1.264462         0.922673         2.110497
 C        -2.555785         1.311210         1.329313
 O        -3.720358         1.583758         1.874187
 C        -2.248044         0.238737         0.216912
 C        -2.391758         0.748501        -1.200378
 C        -2.205817         2.297223        -1.022289
 C        -1.722335         2.298268         0.430366
 H         0.293778         0.608015        -0.793315
 H        -1.182412         0.012184         2.706779
 H        -0.943738         1.840759         2.644741
 H        -3.980023         1.011718         2.720475
 H        -2.454145        -0.787456         0.368917
 H        -1.594498         0.174019        -1.778926
 H        -3.371470         0.514715        -1.592377
 H        -1.379108         2.800631        -1.675738
 H        -3.216703         2.725003        -1.370227
 H        -1.332898         3.270281         0.940314
