19
Iteration:  1275charge 0 multiplicity 1
 O         0.477869         0.797582         0.119202
 C        -0.866811         0.846960         0.663679
 C        -1.286305         1.044408         2.064121
 C        -2.604327         1.328522         1.294707
 O        -3.815667         1.622854         1.964295
 C        -2.112422         0.192426         0.226943
 C        -2.454894         0.741707        -1.168961
 C        -2.162127         2.244909        -0.980510
 C        -1.708286         2.199196         0.368906
 H         0.437824        -0.029321        -0.360545
 H        -1.226215        -0.007821         2.591565
 H        -0.714170         1.884272         2.613170
 H        -4.185421         0.893874         2.436892
 H        -2.460401        -0.910297         0.448395
 H        -1.748730         0.474999        -1.895466
 H        -3.465505         0.447003        -1.491846
 H        -1.418026         2.684638        -1.603534
 H        -3.087641         2.742633        -1.179841
 H        -1.384062         3.098739         0.792716
