19
Iteration:   564charge 0 multiplicity 1
 O         0.496063         0.737986         0.143505
 C        -0.717555         1.026937         0.661779
 C        -1.203846         0.950407         2.139908
 C        -2.493586         1.261973         1.316927
 O        -3.860347         1.466161         1.642815
 C        -2.156542         0.224823         0.244909
 C        -2.678822         0.743442        -1.035565
 C        -2.217180         2.239998        -1.001175
 C        -1.662991         2.326064         0.483569
 H         0.479179        -0.136596        -0.382637
 H        -0.975390        -0.022979         2.662714
 H        -0.828736         1.845091         2.704116
 H        -3.931247         2.264716         2.134964
 H        -2.277236        -0.885933         0.477932
 H        -2.259819         0.207203        -1.883764
 H        -3.790764         0.699899        -0.969105
 H        -1.412179         2.435486        -1.658364
 H        -3.052002         2.927021        -1.040878
 H        -1.554097         3.286585         0.954761
