19
Iteration:  3161charge 0 multiplicity 1
 O         0.467130         0.652460         0.231381
 C        -0.847607         1.049607         0.598535
 C        -1.244494         0.905004         2.146247
 C        -2.569944         1.215650         1.281955
 O        -3.812930         1.556250         1.754539
 C        -2.147585         0.235972         0.234540
 C        -2.476553         0.691846        -1.090781
 C        -2.234912         2.279694        -0.998961
 C        -1.723369         2.339197         0.416911
 H         0.706805         0.948329        -0.727254
 H        -1.096134        -0.133135         2.580073
 H        -0.967846         1.553114         2.997274
 H        -3.599927         2.308571         2.294690
 H        -2.064972        -0.847355         0.336879
 H        -1.967934         0.014092        -1.814280
 H        -3.506320         0.591160        -1.407554
 H        -1.358986         2.710682        -1.545929
 H        -3.162160         2.760751        -1.101380
 H        -1.520462         3.317189         0.863160
