19
Iteration:  4889
 O         0.455311         0.775121         0.171850
 C        -0.799671         0.996603         0.764057
 C        -1.252070         1.133034         2.204741
 C        -2.504880         1.351067         1.250664
 O        -3.854002         1.608753         1.634479
 C        -2.103171         0.181225         0.433514
 C        -2.486691         0.494686        -1.036294
 C        -2.281020         2.070140        -1.105326
 C        -1.727620         2.256469         0.299231
 H         0.499798         1.349005        -0.733477
 H        -1.262070         0.167328         2.893410
 H        -0.792802         1.949440         2.788114
 H        -3.621611         2.078239         2.477323
 H        -2.099242        -0.874378         0.707391
 H        -1.732873        -0.048129        -1.686317
 H        -3.559750         0.365206        -1.248530
 H        -1.551023         2.470526        -1.913553
 H        -3.377672         2.569284        -1.357562
 H        -1.265748         3.201766         0.752535
