19
Iteration:  4110
 O         0.518548         0.671571         0.163517
 C        -0.820213         0.959783         0.685673
 C        -1.307729         1.093041         2.261564
 C        -2.540800         1.295175         1.303172
 O        -3.879038         1.506980         1.766722
 C        -2.137269         0.149366         0.238435
 C        -2.545718         0.651202        -1.165741
 C        -2.220520         2.255202        -1.025501
 C        -1.661945         2.275812         0.358597
 H         0.873923         1.505223        -0.395129
 H        -1.138658         0.200589         2.867612
 H        -0.824736         1.959395         2.726385
 H        -3.842175         2.395145         2.242208
 H        -2.211622        -0.850153         0.645902
 H        -2.001332         0.191145        -1.999441
 H        -3.580091         0.384614        -1.444591
 H        -1.415641         2.419060        -1.760757
 H        -3.126684         2.845579        -1.166051
 H        -1.160137         3.097035         0.836036
