19
Iteration:  4758
 O         0.480206         0.846636         0.083412
 C        -0.825477         1.025297         0.709598
 C        -1.225217         1.163302         2.203182
 C        -2.591240         1.289366         1.372885
 O        -3.866406         1.719110         1.684141
 C        -2.031232         0.151962         0.366541
 C        -2.439785         0.526936        -1.049220
 C        -2.180094         2.035168        -1.076631
 C        -1.789330         2.215199         0.342764
 H         0.229144         0.107671        -0.427655
 H        -1.238764         0.220561         2.867767
 H        -1.039924         2.107743         2.706010
 H        -4.219760         1.313025         2.513423
 H        -2.045651        -0.888503         0.703859
 H        -2.007983        -0.135500        -1.835961
 H        -3.499837         0.392315        -1.167083
 H        -1.563789         2.462802        -1.903005
 H        -3.105268         2.548601        -1.518793
 H        -1.336307         3.118200         0.658807
