19
Iteration:  2048charge 0 multiplicity 1
 O         0.447980         0.852948         0.117099
 C        -0.798179         1.047212         0.624335
 C        -1.307934         0.882728         2.219647
 C        -2.446108         1.387370         1.383490
 O        -3.783684         1.585598         1.739414
 C        -2.154166         0.246074         0.282876
 C        -2.662812         0.707809        -1.129431
 C        -2.162198         2.162546        -1.048730
 C        -1.665080         2.216702         0.376356
 H         0.706956        -0.041492         0.592613
 H        -1.258063        -0.218404         2.420194
 H        -0.931120         1.620724         3.003120
 H        -4.015658         0.659909         1.963496
 H        -2.143220        -0.849049         0.457755
 H        -2.280405         0.161568        -1.970941
 H        -3.713572         0.662259        -1.033529
 H        -1.330307         2.386944        -1.691884
 H        -3.065657         2.776099        -1.244589
 H        -1.238973         3.209313         0.602477
