19
Iteration:  4798charge 0 multiplicity 1
 O         0.477423         0.812775         0.230078
 C        -0.795221         1.071791         0.674496
 C        -1.258072         1.186373         2.146359
 C        -2.478889         1.380427         1.309825
 O        -3.840106         1.574685         1.855841
 C        -2.182275         0.240903         0.359332
 C        -2.494355         0.511443        -1.067998
 C        -2.242041         2.032456        -1.211515
 C        -1.681775         2.268828         0.248725
 H         0.886944        -0.130377         0.480173
 H        -1.231593         0.195455         2.570475
 H        -0.808831         1.990343         2.759559
 H        -4.416208         0.808605         1.705600
 H        -2.396280        -0.826518         0.507263
 H        -1.990741        -0.187857        -1.702350
 H        -3.630415         0.438157        -1.044318
 H        -1.530917         2.443079        -1.883939
 H        -3.187609         2.639156        -1.392454
 H        -1.296953         3.310883         0.428169
