19
Iteration:  2636
 O         0.557675         0.803870         0.233673
 C        -0.849680         0.936797         0.664664
 C        -1.241699         0.978541         2.133465
 C        -2.550140         1.267368         1.236555
 O        -3.740843         1.680283         1.740819
 C        -2.241561         0.164306         0.255920
 C        -2.559726         0.648611        -1.139957
 C        -2.283883         2.255567        -0.913070
 C        -1.618091         2.239952         0.391746
 H         0.658456         0.379743        -0.633948
 H        -1.364218         0.108190         2.847166
 H        -0.826937         1.853460         2.717175
 H        -4.108546         0.994483         2.280982
 H        -2.405854        -0.887396         0.494969
 H        -1.857869         0.195261        -1.970829
 H        -3.557753         0.456991        -1.573636
 H        -1.877743         2.687204        -1.817044
 H        -3.341674         2.589965        -0.934463
 H        -1.241972         3.164258         0.759604
