19
Iteration:  1361
 O         0.473659         0.718881         0.292865
 C        -0.791338         0.936704         0.686716
 C        -1.090233         1.018262         2.130927
 C        -2.523998         1.185935         1.305022
 O        -3.752164         1.614095         1.636926
 C        -2.195418         0.160762         0.217648
 C        -2.748613         0.740288        -1.042264
 C        -2.312234         2.253795        -1.013776
 C        -1.575415         2.255536         0.358141
 H         0.746929         1.610482         0.091401
 H        -0.781854         0.148999         2.739048
 H        -0.839277         1.858144         2.534381
 H        -4.301328         0.762835         2.025682
 H        -2.176220        -0.973945         0.427248
 H        -2.415843         0.387019        -2.013093
 H        -3.829018         0.660574        -1.212852
 H        -1.675248         2.645928        -1.845447
 H        -3.150668         2.998679        -0.860938
 H        -1.269613         3.126503         0.838100
