19
Iteration:  3079
 O         0.470419         0.604715         0.335849
 C        -0.814569         1.050392         0.641092
 C        -1.204714         0.947744         2.081786
 C        -2.577275         1.344290         1.262003
 O        -3.814473         1.565088         1.826328
 C        -1.975989         0.233646         0.194245
 C        -2.616174         0.693179        -1.167415
 C        -2.208174         2.267696        -1.125008
 C        -1.740163         2.307096         0.466285
 H         0.731046         0.848902        -0.549709
 H        -1.224366        -0.076360         2.457166
 H        -0.783485         1.662265         2.768333
 H        -4.183005         0.795162         2.431038
 H        -2.132851        -0.811932         0.509991
 H        -2.456479         0.153513        -2.096862
 H        -3.709524         0.773402        -0.958739
 H        -1.470534         2.725569        -1.740479
 H        -3.101642         2.955524        -1.336934
 H        -1.514705         3.300717         0.999824
