19
Iteration:  4986charge 0 multiplicity 1
 O         0.579812         0.886941         0.187489
 C        -0.807833         0.964513         0.623625
 C        -1.265418         1.184274         2.193954
 C        -2.559301         1.351114         1.309420
 O        -3.845448         1.636964         1.728459
 C        -2.118526         0.151601         0.406780
 C        -2.580586         0.578027        -1.021292
 C        -2.304761         2.067209        -1.130573
 C        -1.661341         2.160183         0.344016
 H         0.924214        -0.072336        -0.123295
 H        -1.298343         0.347856         2.956460
 H        -0.809278         2.035219         2.646097
 H        -4.502692         1.183762         1.143173
 H        -1.914547        -0.871875         0.811984
 H        -1.858241        -0.004446        -1.614452
 H        -3.703497         0.409973        -1.166905
 H        -1.586463         2.341116        -1.848712
 H        -3.127802         2.708768        -1.369323
 H        -1.298633         3.240912         0.513047
