19
Iteration:  2777charge 0 multiplicity 1
 O         0.521577         0.762800         0.279671
 C        -0.779507         0.948981         0.671105
 C        -1.256115         0.937553         2.109227
 C        -2.499864         1.338391         1.250868
 O        -3.800034         1.639704         1.758840
 C        -2.145253         0.146250         0.226623
 C        -2.641593         0.663649        -1.036746
 C        -2.223719         2.248113        -1.066802
 C        -1.695122         2.259262         0.383106
 H         0.691003         1.194783        -0.535962
 H        -1.103337         0.009621         2.664446
 H        -0.858473         1.743232         2.749200
 H        -4.178398         1.062021         2.383362
 H        -2.132880        -0.931093         0.465860
 H        -2.261514         0.153588        -2.017586
 H        -3.711952         0.610728        -1.181133
 H        -1.479676         2.475445        -1.870546
 H        -3.198704         2.724825        -1.222316
 H        -1.412196         3.186666         0.814035
