19
Iteration:  4434
 O         0.468506         0.769754         0.269976
 C        -0.819749         1.007967         0.740679
 C        -1.292760         1.276017         2.146429
 C        -2.527219         1.292902         1.243913
 O        -3.717156         1.563969         1.851033
 C        -2.157643         0.170406         0.276938
 C        -2.515848         0.494792        -1.117066
 C        -2.194664         2.077607        -1.084964
 C        -1.764133         2.211519         0.304123
 H         0.628831         0.953937        -0.719205
 H        -1.185498         0.277469         2.635410
 H        -1.042964         2.211815         2.629202
 H        -4.067272         2.418755         1.584629
 H        -2.247847        -0.864770         0.619524
 H        -2.283639        -0.292077        -1.822499
 H        -3.630333         0.315082        -1.054160
 H        -1.332308         2.515554        -1.723072
 H        -3.137261         2.618236        -1.383130
 H        -1.453461         3.298540         0.498806
