19
Iteration:  4313charge 0 multiplicity 1
 O         0.443034         0.771241         0.244276
 C        -0.793456         0.961366         0.735388
 C        -1.244149         1.045413         2.189705
 C        -2.506027         1.396382         1.278369
 O        -3.806373         1.551507         1.758896
 C        -2.059572         0.222401         0.375540
 C        -2.500113         0.559492        -1.059693
 C        -2.277769         2.037464        -1.179448
 C        -1.748939         2.351472         0.274917
 H         0.398758         1.129960        -0.661209
 H        -1.486135         0.024083         2.647053
 H        -0.794622         1.804474         2.818915
 H        -3.779896         2.313675         2.350035
 H        -2.266268        -0.827166         0.649781
 H        -1.885830        -0.027365        -1.786060
 H        -3.566281         0.237441        -1.265983
 H        -1.645132         2.360240        -1.939283
 H        -3.077857         2.687287        -1.536194
 H        -1.519952         3.414353         0.610981
