19
Iteration:  1602charge 0 multiplicity 1
 O         0.344308         0.745773         0.049879
 C        -0.866592         0.951122         0.640810
 C        -1.310360         1.068182         2.134881
 C        -2.526395         1.219036         1.404351
 O        -3.665137         1.642666         1.877568
 C        -2.242242         0.171348         0.249818
 C        -2.409091         0.655600        -1.200864
 C        -2.193706         2.250456        -1.081470
 C        -1.748007         2.224126         0.446528
 H         1.004860         0.895459         0.667998
 H        -1.068145         0.275813         2.940372
 H        -0.959303         1.926437         2.620030
 H        -4.260821         1.028019         2.430068
 H        -2.358563        -0.865243         0.327330
 H        -1.608747         0.282134        -1.827183
 H        -3.374514         0.402026        -1.625532
 H        -1.300704         2.559659        -1.665770
 H        -3.070004         2.914537        -1.371992
 H        -1.319595         3.061987         0.841674
