19
Iteration:  4937charge 0 multiplicity 1
 O         0.527029         0.744555         0.294963
 C        -0.784643         1.079877         0.671333
 C        -1.234555         1.156326         2.121621
 C        -2.565569         1.389581         1.304607
 O        -3.819710         1.647499         1.835313
 C        -2.064398         0.167056         0.348829
 C        -2.483264         0.518760        -1.095693
 C        -2.280661         2.069875        -1.189215
 C        -1.815749         2.285414         0.245869
 H         0.608157         0.049274        -0.286326
 H        -1.157011         0.194714         2.576433
 H        -0.959966         1.951167         2.885139
 H        -4.138699         0.867677         2.296819
 H        -2.375647        -0.853754         0.637402
 H        -1.869514         0.086009        -1.885437
 H        -3.493247         0.208527        -1.065431
 H        -1.465428         2.324811        -1.950381
 H        -3.101410         2.805117        -1.350206
 H        -1.614540         3.276338         0.484185
