19
Iteration:   464charge 0 multiplicity 1
 O         0.436798         0.692272         0.187959
 C        -0.876010         1.014526         0.624260
 C        -1.290368         0.981590         2.110850
 C        -2.519010         1.332746         1.238888
 O        -3.684928         1.450689         1.864471
 C        -2.259224         0.250866         0.224520
 C        -2.514251         0.708724        -1.168403
 C        -2.273880         2.247263        -1.016215
 C        -1.590501         2.299752         0.331755
 H         0.995276         0.527913         0.892570
 H        -1.313443        -0.042669         2.645860
 H        -1.009608         1.704878         2.909120
 H        -3.514440         1.839259         2.647495
 H        -2.683936        -0.720756         0.731649
 H        -1.735587         0.326458        -1.876513
 H        -3.417193         0.479200        -1.797484
 H        -1.751636         2.724478        -1.829878
 H        -3.223727         2.814970        -0.899763
 H        -1.495276         3.201293         0.889980
