19
Iteration:   676
 O         0.411743         0.750594        -0.038274
 C        -0.811290         0.927599         0.668510
 C        -1.217555         0.883420         2.141220
 C        -2.575269         1.273356         1.272872
 O        -3.946269         1.500157         1.784615
 C        -2.125162         0.232122         0.300428
 C        -2.555090         0.740432        -1.024653
 C        -2.135395         2.284894        -0.953219
 C        -1.625113         2.265397         0.467706
 H         1.158168         0.957631         0.442931
 H        -1.249352        -0.123386         2.546771
 H        -0.624694         1.711179         2.661336
 H        -3.942822         2.521451         1.746068
 H        -2.223334        -0.799376         0.457182
 H        -2.045459         0.278919        -1.850012
 H        -3.614685         0.652177        -1.138303
 H        -1.361684         2.474277        -1.631052
 H        -2.927402         2.972212        -1.100259
 H        -1.089322         3.218775         0.754770
