19
Iteration:  3716charge 0 multiplicity 1
 O         0.436950         0.628654         0.217341
 C        -0.794948         0.974276         0.640030
 C        -1.170366         1.025388         2.056994
 C        -2.573030         1.247918         1.327496
 O        -3.800070         1.567893         1.856900
 C        -2.076971         0.209892         0.199414
 C        -2.558514         0.790274        -1.190076
 C        -2.248216         2.322280        -1.040229
 C        -1.759130         2.248120         0.464858
 H         0.827651         0.217850         0.974932
 H        -1.130795         0.054762         2.712203
 H        -0.795280         1.701207         2.806940
 H        -4.457238         1.187057         1.368652
 H        -2.153938        -0.896918         0.279095
 H        -1.842656         0.465402        -2.002978
 H        -3.596330         0.773692        -1.580147
 H        -1.352659         2.566019        -1.594450
 H        -3.171235         2.960111        -1.292380
 H        -1.344690         3.181629         0.950449
