19
Iteration:  2780
 O         0.525070         0.757693         0.285112
 C        -0.766170         0.950560         0.642543
 C        -1.278735         0.961466         2.119601
 C        -2.483783         1.323159         1.257136
 O        -3.805065         1.629396         1.763678
 C        -2.162807         0.135846         0.242882
 C        -2.620224         0.656264        -1.033367
 C        -2.229280         2.262845        -1.084087
 C        -1.683929         2.252846         0.373788
 H         0.700380         1.196191        -0.615634
 H        -1.206082        -0.009778         2.694389
 H        -0.831410         1.792732         2.712338
 H        -4.169185         1.016039         2.412869
 H        -2.224264        -0.933167         0.469216
 H        -2.192294         0.245921        -1.993530
 H        -3.725798         0.682874        -1.139851
 H        -1.579010         2.494864        -1.887463
 H        -3.205664         2.796946        -1.221150
 H        -1.381965         3.182494         0.880058
