19
Iteration:  4566
 O         0.509565         0.757216         0.356186
 C        -0.787777         1.039397         0.704373
 C        -1.220114         1.160803         2.154087
 C        -2.552401         1.413456         1.277031
 O        -3.807590         1.493191         1.803293
 C        -2.126699         0.238822         0.248296
 C        -2.529934         0.509970        -1.139021
 C        -2.304220         2.033470        -1.106736
 C        -1.667474         2.313538         0.223981
 H         0.516160         0.379226        -0.626879
 H        -1.443369         0.318041         2.817088
 H        -0.702789         1.905370         2.778943
 H        -4.048783         2.273697         2.303895
 H        -2.289561        -0.789479         0.639571
 H        -1.931216        -0.156090        -1.728545
 H        -3.646995         0.333825        -1.133220
 H        -1.902251         2.535129        -1.999175
 H        -3.291621         2.507752        -1.061570
 H        -1.221335         3.343583         0.428795
