19
Iteration:  4304
 O         0.477893         0.734307         0.258188
 C        -0.794975         1.018788         0.763274
 C        -1.273935         1.094338         2.156287
 C        -2.515155         1.421038         1.269511
 O        -3.812782         1.520008         1.862838
 C        -2.104500         0.260605         0.284777
 C        -2.502236         0.491519        -1.099693
 C        -2.246717         2.096648        -1.178044
 C        -1.730503         2.248310         0.248441
 H         0.478503         1.186172        -0.590142
 H        -1.333880         0.121014         2.728423
 H        -1.001290         1.875718         2.867398
 H        -3.942934         2.452873         2.053372
 H        -2.094738        -0.793622         0.604547
 H        -1.965786         0.031674        -1.892880
 H        -3.601111         0.286531        -1.103252
 H        -1.558466         2.328518        -1.975977
 H        -3.179846         2.749628        -1.248736
 H        -1.422505         3.282481         0.602969
