19
Iteration:  1547charge 0 multiplicity 1
 O         0.426448         0.687568         0.190635
 C        -0.780430         0.970219         0.661388
 C        -1.208892         0.969026         2.240877
 C        -2.428563         1.293532         1.307691
 O        -3.735880         1.600328         1.597247
 C        -2.095014         0.192308         0.272419
 C        -2.728029         0.731857        -1.046639
 C        -2.336156         2.250598        -1.008137
 C        -1.636759         2.259647         0.402442
 H         0.926232         1.457861         0.001987
 H        -1.253088        -0.083377         2.727322
 H        -0.889966         1.824789         2.774719
 H        -4.125821         0.847816         2.044640
 H        -2.047042        -0.862127         0.454973
 H        -2.341365         0.347900        -2.005961
 H        -3.762593         0.424059        -1.186459
 H        -1.507702         2.361785        -1.744741
 H        -3.113673         3.074060        -1.107108
 H        -1.365102         3.166915         0.780952
