19
Iteration:  4456
 O         0.477873         0.850240         0.179795
 C        -0.847209         1.013847         0.704881
 C        -1.229349         1.057506         2.178507
 C        -2.572996         1.353753         1.356842
 O        -3.863201         1.658328         1.793204
 C        -2.066990         0.130252         0.378609
 C        -2.551848         0.542115        -1.084095
 C        -2.197649         1.992533        -1.158980
 C        -1.714957         2.243568         0.343922
 H         0.615347         1.047780        -0.737975
 H        -1.172454         0.069584         2.709103
 H        -0.849651         1.966854         2.631776
 H        -4.084802         2.625055         1.759032
 H        -1.936132        -0.922385         0.687418
 H        -1.890518         0.006492        -1.752220
 H        -3.546566         0.064317        -1.308513
 H        -1.371417         2.110286        -1.987887
 H        -2.975359         2.730526        -1.474794
 H        -1.455232         3.333701         0.590958
