19
Iteration:  2451
 O         0.526685         0.748446         0.138323
 C        -0.757565         1.002323         0.665469
 C        -1.267518         0.911959         2.194377
 C        -2.571140         1.289502         1.394361
 O        -3.870610         1.686726         1.761871
 C        -2.034116         0.263186         0.235773
 C        -2.597067         0.672467        -1.178645
 C        -2.263082         2.229516        -1.053621
 C        -1.695230         2.257658         0.433505
 H         0.645722        -0.226783        -0.188115
 H        -1.139018        -0.111599         2.592459
 H        -0.768601         1.612098         2.883458
 H        -4.311066         0.948592         2.378030
 H        -2.001559        -0.827239         0.403487
 H        -2.039992         0.212122        -1.929392
 H        -3.631713         0.310184        -1.349960
 H        -1.576841         2.596300        -1.842886
 H        -3.100139         2.958245        -1.120535
 H        -1.344528         3.233475         0.785232
