19
Iteration:  2544
 O         0.466093         0.635287         0.245808
 C        -0.837802         1.006183         0.707232
 C        -1.179954         1.097641         2.189769
 C        -2.521182         1.287950         1.332908
 O        -3.786078         1.529936         1.799338
 C        -2.175241         0.214719         0.240562
 C        -2.598095         0.794698        -1.156222
 C        -2.196539         2.184946        -1.145591
 C        -1.683893         2.243330         0.366620
 H         0.506525         1.124175        -0.573809
 H        -1.023132         0.118470         2.651682
 H        -0.868920         1.863710         2.870822
 H        -4.104325         0.790410         2.166342
 H        -2.370994        -0.849712         0.441399
 H        -2.159160         0.167438        -2.073483
 H        -3.673600         0.568410        -1.277963
 H        -1.501770         2.776008        -1.752931
 H        -3.045154         2.843287        -1.168199
 H        -1.323962         3.170959         0.885232
