19
Iteration:   366charge 0 multiplicity 1
 O         0.504044         0.753192         0.132485
 C        -0.816404         0.968738         0.603493
 C        -1.300550         0.915295         2.092631
 C        -2.563837         1.277891         1.343446
 O        -3.845713         1.487713         1.836965
 C        -2.189784         0.261147         0.271258
 C        -2.607263         0.737129        -1.106884
 C        -2.116441         2.235113        -0.994409
 C        -1.661763         2.230976         0.418009
 H         0.928681         1.421756        -0.326565
 H        -1.087298        -0.155758         2.485744
 H        -0.935606         1.682347         2.812481
 H        -3.979954         2.368429         1.803059
 H        -2.328138        -0.812433         0.685458
 H        -2.066031         0.137466        -1.898577
 H        -3.686648         0.459595        -1.255087
 H        -1.272886         2.332815        -1.629155
 H        -2.741514         3.085076        -1.219420
 H        -1.296178         3.273617         0.813273
