19
Iteration:  4664
 O         0.472741         0.699633         0.396849
 C        -0.786551         1.068959         0.730519
 C        -1.155698         1.233236         2.135563
 C        -2.503491         1.357019         1.252373
 O        -3.811638         1.459665         1.780808
 C        -2.117808         0.151834         0.290006
 C        -2.598037         0.541206        -1.063678
 C        -2.255271         2.099361        -1.190422
 C        -1.786816         2.271137         0.206678
 H         0.731507         1.113116        -0.526834
 H        -1.194218         0.346730         2.765135
 H        -0.790366         2.153031         2.592073
 H        -3.787848         2.338280         2.151723
 H        -2.084551        -0.900297         0.641752
 H        -2.202413        -0.034307        -1.970580
 H        -3.757222         0.359193        -1.031321
 H        -1.595866         2.575893        -1.935516
 H        -3.059129         2.789164        -1.328062
 H        -1.393518         3.198020         0.783584
