19
Iteration:  2144charge 0 multiplicity 1
 O         0.473546         0.704927         0.125198
 C        -0.794631         0.991912         0.692002
 C        -1.187410         0.973991         2.246285
 C        -2.456998         1.346940         1.285735
 O        -3.862887         1.615871         1.696176
 C        -2.137805         0.255011         0.193552
 C        -2.514851         0.684834        -1.224390
 C        -2.369758         2.214608        -0.948456
 C        -1.648361         2.258426         0.455356
 H         0.678802        -0.135875         0.341372
 H        -1.089625         0.045273         2.733025
 H        -0.910818         1.923435         2.691561
 H        -4.001047         1.246454         2.527525
 H        -2.183646        -0.831443         0.433627
 H        -1.845082         0.094009        -1.883829
 H        -3.616873         0.376708        -1.483739
 H        -1.827029         2.781776        -1.775205
 H        -3.323602         2.705841        -0.820698
 H        -1.332395         3.133722         0.993653
