19
Iteration:  1742
 O         0.411858         0.813329         0.101611
 C        -0.831739         0.995535         0.679985
 C        -1.193597         0.946490         2.204763
 C        -2.525159         1.331548         1.338813
 O        -3.885666         1.608000         1.841747
 C        -2.103747         0.255221         0.319815
 C        -2.538370         0.658377        -1.145268
 C        -2.193294         2.205874        -1.121115
 C        -1.658866         2.239879         0.339311
 H         0.558698        -0.090462        -0.033723
 H        -1.236824        -0.044431         2.632497
 H        -0.816163         1.673777         2.893785
 H        -4.110590         0.870208         2.317135
 H        -2.216684        -0.791956         0.593190
 H        -1.896025         0.215195        -1.920775
 H        -3.579538         0.438448        -1.307718
 H        -1.411614         2.421198        -1.779167
 H        -2.985560         2.932889        -1.263435
 H        -1.191299         3.225042         0.687518
