19
Iteration:  1696charge 0 multiplicity 1
 O         0.541061         0.826072         0.202653
 C        -0.817480         1.004036         0.712525
 C        -1.215374         1.040549         2.175945
 C        -2.463011         1.220970         1.411551
 O        -3.828363         1.669903         1.630682
 C        -2.067262         0.112542         0.221321
 C        -2.758005         0.774026        -1.058317
 C        -2.313379         2.215803        -1.031436
 C        -1.625146         2.152635         0.326294
 H         0.894530        -0.097607         0.231268
 H        -1.034427         0.135060         2.564044
 H        -0.669145         1.825978         2.783888
 H        -4.347907         0.859189         1.811036
 H        -2.029832        -1.084788         0.280554
 H        -2.378791         0.225840        -1.955888
 H        -3.831365         0.656407        -0.903286
 H        -1.593906         2.459575        -1.817708
 H        -3.134972         2.907495        -0.973716
 H        -1.159680         3.116798         0.858471
