19
Iteration:   969charge 0 multiplicity 1
 O         0.455000         0.736444         0.016226
 C        -0.828074         0.915998         0.664291
 C        -1.221537         1.023670         2.079925
 C        -2.589061         1.206859         1.345340
 O        -3.842471         1.654933         1.883554
 C        -2.176578         0.208409         0.164143
 C        -2.421904         0.788790        -1.179649
 C        -2.172407         2.235543        -0.903714
 C        -1.714824         2.236874         0.493328
 H         0.446230        -0.192311         0.053052
 H        -1.237834         0.095064         2.670456
 H        -1.015638         1.924214         2.681535
 H        -4.194082         1.067353         2.714977
 H        -2.136849        -0.937022         0.176362
 H        -1.689248         0.312962        -1.877516
 H        -3.472477         0.593524        -1.701516
 H        -1.402511         2.730237        -1.495104
 H        -3.097915         2.798780        -1.192316
 H        -1.507059         3.132528         0.916771
