19
Iteration:  3537
 O         0.396115         0.733747         0.021815
 C        -0.758792         1.004623         0.654081
 C        -1.372673         0.809785         2.225399
 C        -2.508671         1.215840         1.274073
 O        -3.830056         1.684597         1.812535
 C        -2.060981         0.222247         0.211877
 C        -2.495277         0.702545        -1.134937
 C        -2.191218         2.200758        -0.939776
 C        -1.659185         2.247628         0.481805
 H         0.987772         1.443358         0.211409
 H        -1.370183        -0.146277         2.707160
 H        -1.129794         1.664142         2.940297
 H        -4.289548         2.022427         1.071012
 H        -1.995041        -0.830172         0.475400
 H        -1.989786         0.243044        -1.951139
 H        -3.546593         0.502141        -1.024751
 H        -1.545411         2.656576        -1.717674
 H        -3.084433         2.849515        -0.991591
 H        -1.531267         3.227275         0.968004
