19
Iteration:  2680
 O         0.485599         0.516409         0.298679
 C        -0.814692         1.066692         0.580290
 C        -1.222637         1.037553         2.036654
 C        -2.489210         1.334426         1.228760
 O        -3.818938         1.611804         1.825085
 C        -2.074598         0.209250         0.273525
 C        -2.472448         0.691780        -1.099494
 C        -2.302460         2.216316        -1.027576
 C        -1.766516         2.400066         0.468157
 H         0.373563         0.671912        -0.639750
 H        -1.063334        -0.026378         2.399784
 H        -0.981360         1.840644         2.795629
 H        -3.981251         0.829831         2.222914
 H        -2.127903        -0.899072         0.358680
 H        -1.927008         0.048813        -1.964367
 H        -3.477298         0.407911        -1.487741
 H        -1.684651         2.719521        -1.745110
 H        -3.319220         2.680620        -1.020256
 H        -1.761579         3.378064         0.894640
