19
Iteration:  4237
 O         0.548775         0.749173         0.226893
 C        -0.772678         1.095830         0.686114
 C        -1.309376         1.017804         2.142070
 C        -2.548156         1.409366         1.277263
 O        -3.846492         1.617067         1.665502
 C        -2.059572         0.245878         0.280044
 C        -2.588532         0.560420        -1.001498
 C        -2.301675         2.074257        -1.036570
 C        -1.639234         2.281228         0.342558
 H         0.375800         0.415668        -0.726645
 H        -1.269705        -0.017155         2.644264
 H        -0.845966         1.756411         2.806371
 H        -4.049554         1.080644         2.500745
 H        -2.077294        -0.820131         0.582588
 H        -1.848655         0.052538        -1.606241
 H        -3.648215         0.197612        -1.018899
 H        -1.640168         2.338279        -1.854714
 H        -3.213545         2.735905        -1.158314
 H        -1.384678         3.366627         0.581167
