19
Iteration:  2247charge 0 multiplicity 1
 O         0.340039         0.854450         0.064911
 C        -0.870322         0.966695         0.734247
 C        -1.132021         1.002393         2.207956
 C        -2.540107         1.283664         1.332317
 O        -3.877907         1.608380         1.895556
 C        -2.172014         0.215586         0.176718
 C        -2.535581         0.728612        -1.180317
 C        -2.042204         2.157361        -1.066965
 C        -1.633898         2.197373         0.385828
 H         0.908701        -0.043953         0.156289
 H        -1.222501         0.109044         2.909584
 H        -0.820991         1.844479         2.856458
 H        -4.536635         0.839348         1.804482
 H        -2.262136        -0.872478         0.368183
 H        -2.091811         0.087378        -1.948002
 H        -3.594769         0.752696        -1.272994
 H        -1.342843         2.409091        -1.827398
 H        -2.952968         2.831852        -1.044268
 H        -1.366330         3.201761         0.861425
