19
Iteration:  2562
 O         0.509348         0.735952         0.194236
 C        -0.827770         0.861514         0.649052
 C        -1.232905         1.066971         2.132778
 C        -2.517717         1.338462         1.277262
 O        -3.893507         1.513642         1.834351
 C        -2.178528         0.226150         0.268581
 C        -2.631598         0.688732        -1.118589
 C        -2.135576         2.252644        -1.002775
 C        -1.630088         2.262934         0.372571
 H         0.835800         1.156870        -0.568001
 H        -1.292937         0.280055         2.885694
 H        -0.727637         2.013537         2.403521
 H        -4.139788         0.746064         2.196188
 H        -2.313157        -0.865008         0.526445
 H        -2.288687         0.145485        -1.888124
 H        -3.751084         0.713433        -1.353815
 H        -1.338460         2.303037        -1.760923
 H        -2.886107         3.079747        -1.260442
 H        -1.102811         3.234312         0.731839
