19
Iteration:  2840
 O         0.500822         0.629443         0.197372
 C        -0.754798         1.068577         0.679716
 C        -1.279492         0.969180         2.101498
 C        -2.472051         1.250690         1.375903
 O        -3.798823         1.670689         1.758988
 C        -2.090578         0.249575         0.262920
 C        -2.482669         0.658226        -1.071087
 C        -2.334557         2.220029        -1.041561
 C        -1.837214         2.319398         0.383069
 H         0.239381         0.234602        -0.644416
 H        -1.138438        -0.002905         2.624832
 H        -0.958125         1.750941         2.808093
 H        -4.068994         0.811821         2.068618
 H        -1.999223        -0.842876         0.451341
 H        -1.775889         0.435864        -1.841857
 H        -3.430774         0.420609        -1.587423
 H        -1.464410         2.603996        -1.713396
 H        -3.173123         2.858736        -1.227048
 H        -1.444944         3.278550         0.790576
