19
Iteration:   909
 O         0.627249         0.849704         0.119958
 C        -0.779328         0.878063         0.671679
 C        -1.264628         0.875915         2.099347
 C        -2.517336         1.251105         1.330851
 O        -3.883390         1.617877         1.766825
 C        -2.180906         0.229652         0.232651
 C        -2.703295         0.743808        -1.129320
 C        -2.261881         2.325146        -1.007199
 C        -1.602780         2.209655         0.400645
 H         0.904760        -0.052201         0.241500
 H        -1.302902        -0.192807         2.676616
 H        -0.858304         1.702601         2.760928
 H        -4.038887         1.068288         2.520414
 H        -2.218798        -0.828893         0.510542
 H        -2.172601         0.266821        -1.965173
 H        -3.763896         0.644075        -1.193292
 H        -1.445406         2.682929        -1.640069
 H        -3.058710         3.010702        -0.877363
 H        -1.223636         3.239146         0.893553
