19
Iteration:  1579
 O         0.393290         0.672890         0.040749
 C        -0.774262         1.014845         0.679416
 C        -1.204927         0.911275         2.130943
 C        -2.542341         1.385796         1.299811
 O        -3.900591         1.667858         1.863766
 C        -2.093713         0.211903         0.265930
 C        -2.487745         0.650094        -1.150839
 C        -2.192869         2.151223        -1.007104
 C        -1.698572         2.273481         0.390173
 H         1.019188         1.329040         0.583631
 H        -1.272365         0.012326         2.829274
 H        -0.757386         1.610791         2.820744
 H        -4.131939         0.774676         2.266415
 H        -2.133327        -0.782804         0.464730
 H        -1.992147         0.282316        -2.053023
 H        -3.548494         0.666031        -1.268453
 H        -1.496507         2.610524        -1.698535
 H        -3.136123         2.761905        -1.054655
 H        -1.504728         3.273011         0.640773
