19
Iteration:  1030
 O         0.600144         0.762563         0.113997
 C        -0.749641         0.971649         0.592413
 C        -1.224199         0.924070         2.078463
 C        -2.534738         1.293667         1.293061
 O        -3.848708         1.639167         1.765157
 C        -2.147211         0.143749         0.210535
 C        -2.721995         0.730641        -1.094926
 C        -2.206509         2.327384        -0.919916
 C        -1.675174         2.246847         0.482799
 H         1.032215         0.027527         0.671961
 H        -1.222175        -0.035559         2.715509
 H        -0.957059         1.541637         2.905849
 H        -4.648061         0.957305         1.625902
 H        -2.289403        -0.912660         0.467763
 H        -2.396562         0.208707        -1.990889
 H        -3.779889         0.672169        -1.163960
 H        -1.333560         2.483658        -1.583298
 H        -3.038370         2.976366        -1.186148
 H        -1.269772         3.181306         1.064436
