19
Iteration:  2341charge 0 multiplicity 1
 O         0.560843         0.862874         0.208977
 C        -0.768642         0.955059         0.652292
 C        -1.254517         0.868108         2.184993
 C        -2.474033         1.288133         1.347203
 O        -3.803887         1.747817         1.725877
 C        -2.167724         0.215725         0.239252
 C        -2.603058         0.665064        -1.252037
 C        -2.361650         2.229699        -1.016989
 C        -1.633682         2.162988         0.432548
 H         0.753403        -0.009160         0.360346
 H        -1.355436        -0.080213         2.648075
 H        -0.833952         1.507635         2.956272
 H        -4.131719         1.073206         2.383359
 H        -2.213632        -0.869967         0.323345
 H        -2.027075         0.192588        -2.020727
 H        -3.724141         0.456815        -1.406861
 H        -1.856669         2.691172        -1.901616
 H        -3.291440         2.737597        -0.856028
 H        -1.263862         3.101389         0.814209
