19
Iteration:  4042
 O         0.553474         0.765424         0.287447
 C        -0.826049         0.945973         0.655447
 C        -1.269051         1.025389         2.149330
 C        -2.584181         1.242212         1.258037
 O        -3.788936         1.613084         1.726311
 C        -2.137083         0.183269         0.245138
 C        -2.562215         0.696926        -1.161604
 C        -2.245460         2.227908        -1.014191
 C        -1.652816         2.275380         0.399057
 H         0.527250         0.255678        -0.514581
 H        -1.113168         0.073174         2.709611
 H        -1.010135         1.860214         2.737544
 H        -4.118096         1.187273         2.556443
 H        -2.422004        -0.879815         0.459315
 H        -2.204584         0.238586        -2.065170
 H        -3.686273         0.592505        -1.256667
 H        -1.516713         2.594238        -1.701439
 H        -3.182942         2.791751        -0.993108
 H        -1.176769         3.243402         0.783807
