19
Iteration:  2826charge 0 multiplicity 1
 O         0.450025         0.609255         0.262974
 C        -0.854086         1.016154         0.614166
 C        -1.171543         1.033314         2.126210
 C        -2.544727         1.331571         1.279729
 O        -3.795688         1.572264         1.764438
 C        -2.039633         0.241189         0.295789
 C        -2.467850         0.720562        -1.159996
 C        -2.308260         2.262343        -1.025159
 C        -1.767916         2.311114         0.396234
 H         0.542886         0.218872        -0.669234
 H        -1.098239        -0.005983         2.570253
 H        -0.744243         1.790166         2.823749
 H        -4.308135         0.942144         2.387177
 H        -2.121136        -0.794787         0.620303
 H        -1.945771         0.109398        -1.890262
 H        -3.520492         0.320476        -1.260860
 H        -1.576515         2.644309        -1.703593
 H        -3.298201         2.710389        -1.163820
 H        -1.548107         3.345438         0.835872
