19
Iteration:  1800charge 0 multiplicity 1
 O         0.384585         0.798423         0.085084
 C        -0.807465         1.057476         0.709601
 C        -1.250059         0.919103         2.103280
 C        -2.497514         1.326670         1.361495
 O        -3.829788         1.678041         1.853285
 C        -2.217007         0.253493         0.252658
 C        -2.402903         0.615171        -1.193461
 C        -2.223417         2.131097        -1.063995
 C        -1.656783         2.283235         0.381137
 H         0.996447         0.056190         0.475104
 H        -1.347527        -0.196637         2.404940
 H        -0.904522         1.535059         2.936184
 H        -4.010184         1.014089         2.683316
 H        -2.314839        -0.784091         0.427493
 H        -1.865929         0.006442        -1.939496
 H        -3.506373         0.493425        -1.381163
 H        -1.687386         2.719598        -1.822370
 H        -3.257595         2.524794        -0.969915
 H        -1.318094         3.162095         0.865959
