19
Iteration:  1269
 O         0.450616         0.780023         0.125302
 C        -0.840541         0.931852         0.681401
 C        -1.301826         1.004547         2.105991
 C        -2.583389         1.309945         1.331250
 O        -3.794503         1.608659         1.939179
 C        -2.136872         0.174072         0.219586
 C        -2.477803         0.745101        -1.191048
 C        -2.165745         2.257101        -1.013668
 C        -1.677958         2.227067         0.368225
 H         0.594313        -0.176052        -0.276953
 H        -1.293836         0.076892         2.565290
 H        -0.882693         1.886680         2.654727
 H        -4.143715         0.846917         2.382141
 H        -2.241637        -0.829603         0.485438
 H        -1.920270         0.235396        -2.102867
 H        -3.507790         0.413246        -1.434234
 H        -1.490233         2.711109        -1.801778
 H        -3.157020         2.804881        -1.044921
 H        -1.244328         3.198933         0.835046
