19
Iteration:  1541charge 0 multiplicity 1
 O         0.441896         0.708920         0.201967
 C        -0.798798         0.939710         0.675085
 C        -1.196933         0.987585         2.218657
 C        -2.437838         1.280435         1.320555
 O        -3.753862         1.610621         1.590095
 C        -2.098896         0.170177         0.238286
 C        -2.712549         0.762481        -1.083608
 C        -2.309478         2.226242        -0.948542
 C        -1.632370         2.227637         0.377658
 H         1.035768         1.412163        -0.050526
 H        -1.229640         0.100599         2.810363
 H        -0.795266         1.941266         2.671268
 H        -4.228463         0.786582         2.072525
 H        -2.122243        -0.967210         0.511368
 H        -2.455137         0.250600        -2.026583
 H        -3.835430         0.602214        -0.944877
 H        -1.639703         2.542108        -1.777595
 H        -3.115036         2.944581        -0.991214
 H        -1.376250         3.313386         0.779965
