19
Iteration:  4892
 O         0.452195         0.782191         0.169769
 C        -0.839026         0.993334         0.755341
 C        -1.244331         1.166739         2.234452
 C        -2.493674         1.334789         1.246364
 O        -3.841798         1.609318         1.640278
 C        -2.112837         0.177689         0.411323
 C        -2.472552         0.498698        -1.031934
 C        -2.296464         2.092226        -1.087811
 C        -1.710541         2.231837         0.275428
 H         0.407613         1.212894        -0.647309
 H        -1.235900         0.195299         2.756383
 H        -0.804573         1.995494         2.862481
 H        -3.682170         1.986989         2.519051
 H        -2.114897        -0.876123         0.698026
 H        -1.725140        -0.026686        -1.631975
 H        -3.482983         0.378868        -1.236763
 H        -1.526803         2.460865        -1.870695
 H        -3.285001         2.553309        -1.438970
 H        -1.286967         3.082138         0.698542
