19
Iteration:  1122charge 0 multiplicity 1
 O         0.322453         0.719611         0.158940
 C        -0.920619         0.911570         0.634354
 C        -1.296929         1.039386         2.119846
 C        -2.522128         1.262605         1.261089
 O        -3.716213         1.622497         1.882327
 C        -2.108191         0.171217         0.182975
 C        -2.402242         0.767878        -1.213407
 C        -2.183682         2.285419        -0.951424
 C        -1.742253         2.212588         0.455705
 H         0.381238         0.161728        -0.545427
 H        -1.362233         0.191394         2.834779
 H        -0.837935         1.840719         2.720699
 H        -3.720677         0.999456         2.681921
 H        -2.234929        -0.953134         0.382780
 H        -1.668626         0.521051        -1.997090
 H        -3.422994         0.567533        -1.679710
 H        -1.421182         2.617339        -1.585003
 H        -3.024067         2.928419        -0.936295
 H        -1.280560         3.021517         0.903844
