19
Iteration:  2404
 O         0.441584         0.814234         0.100445
 C        -0.814940         0.931804         0.630173
 C        -1.179165         1.058446         2.153233
 C        -2.561204         1.309135         1.341287
 O        -3.907705         1.523059         1.849081
 C        -2.217496         0.172722         0.241987
 C        -2.620056         0.775392        -1.134160
 C        -2.095938         2.214417        -1.081540
 C        -1.597586         2.237555         0.416713
 H         0.891286         0.122562         0.516700
 H        -1.201841         0.220302         2.945941
 H        -0.815431         2.006714         2.672290
 H        -4.154882         0.601493         2.179931
 H        -2.472710        -0.881301         0.376959
 H        -2.231219         0.258510        -2.020841
 H        -3.650864         0.663515        -1.208019
 H        -1.106369         2.349873        -1.597081
 H        -2.667416         3.030124        -1.489866
 H        -1.102320         3.019074         0.924637
