19
Iteration:   500
 O         0.463965         0.798172         0.099490
 C        -0.787896         1.037788         0.661419
 C        -1.242270         0.903199         2.227612
 C        -2.517506         1.250276         1.412693
 O        -3.869463         1.588097         1.900411
 C        -2.116091         0.147831         0.147985
 C        -2.572202         0.720512        -1.230500
 C        -2.180966         2.244264        -1.065174
 C        -1.717349         2.241212         0.374045
 H         0.658297        -0.101786         0.289412
 H        -1.058856        -0.140053         2.606493
 H        -0.893498         1.776425         2.830154
 H        -3.782142         2.363472         2.331598
 H        -2.222303        -0.907125         0.406253
 H        -1.963388         0.227003        -1.996955
 H        -3.679501         0.620499        -1.341098
 H        -1.332370         2.406187        -1.700179
 H        -2.964769         2.903542        -1.373363
 H        -1.664778         3.304976         0.920755
