19
Iteration:  4374
 O         0.507244         0.758142         0.285207
 C        -0.788679         1.013108         0.673915
 C        -1.297263         1.199115         2.155101
 C        -2.453524         1.366649         1.314255
 O        -3.732241         1.637741         1.743425
 C        -2.036815         0.190176         0.331795
 C        -2.626288         0.509263        -1.112219
 C        -2.352215         2.087296        -1.081323
 C        -1.727945         2.272047         0.316239
 H         0.525913         0.320933        -0.491195
 H        -1.384444         0.302828         2.727459
 H        -0.891802         1.939188         2.883906
 H        -4.254806         0.965612         1.322370
 H        -2.185436        -0.875717         0.623022
 H        -2.000789        -0.147429        -1.772774
 H        -3.666466         0.273325        -1.029341
 H        -1.418217         2.424316        -1.814285
 H        -3.251197         2.721277        -1.316210
 H        -1.472324         3.273117         0.553685
