19
Iteration:  3688
 O         0.427569         0.686223         0.023067
 C        -0.772261         0.987053         0.660235
 C        -1.291534         0.916746         2.180566
 C        -2.517663         1.319658         1.355425
 O        -3.849098         1.566628         1.769874
 C        -2.121754         0.269846         0.236863
 C        -2.509001         0.743560        -1.118285
 C        -2.244070         2.242785        -0.963902
 C        -1.617120         2.294258         0.464205
 H         1.020233         0.476184         0.703697
 H        -1.419628         0.009244         2.701270
 H        -0.999032         1.608230         2.995904
 H        -4.384016         1.070409         1.159766
 H        -2.270896        -0.798185         0.435170
 H        -1.923873         0.195550        -1.857282
 H        -3.527998         0.665018        -1.521643
 H        -1.506929         2.688832        -1.670224
 H        -3.180584         2.723426        -1.040706
 H        -1.181531         3.205558         0.932018
