19
Iteration:  2704
 O         0.491844         0.660709         0.231939
 C        -0.869206         0.957830         0.630479
 C        -1.243192         1.040349         2.232390
 C        -2.469825         1.340272         1.336617
 O        -3.802908         1.588350         1.790732
 C        -2.143186         0.209901         0.239669
 C        -2.557211         0.671315        -1.156591
 C        -2.248282         2.230419        -1.071125
 C        -1.725934         2.305444         0.394982
 H         0.434246         0.958548        -0.669089
 H        -1.114794         0.072664         2.792082
 H        -0.758692         1.898737         2.751447
 H        -4.179029         0.789380         2.260111
 H        -2.016140        -0.887637         0.360668
 H        -2.016560         0.184187        -2.009423
 H        -3.569343         0.473950        -1.642048
 H        -1.534985         2.498573        -1.831579
 H        -3.098115         2.962464        -1.021723
 H        -1.088479         3.172559         0.687667
