19
Iteration:  1940charge 0 multiplicity 1
 O         0.371519         0.890921         0.087088
 C        -0.850316         0.920401         0.713970
 C        -1.235225         0.928749         2.217909
 C        -2.572039         1.301514         1.310381
 O        -3.766202         1.708328         1.926815
 C        -2.193396         0.202076         0.198903
 C        -2.417866         0.674472        -1.242096
 C        -2.159810         2.174449        -1.096292
 C        -1.762530         2.206757         0.419216
 H         0.773176        -0.001118         0.286765
 H        -1.236585        -0.029224         2.723445
 H        -0.683890         1.626626         2.820048
 H        -4.000558         1.039613         2.517801
 H        -2.392258        -0.841074         0.439548
 H        -1.771725         0.203036        -1.988137
 H        -3.388638         0.345689        -1.543840
 H        -1.407628         2.473057        -1.741021
 H        -3.021246         2.736916        -1.468825
 H        -1.267585         3.147429         0.777593
