19
Iteration:  2146
 O         0.448843         0.718024         0.144676
 C        -0.786834         0.982449         0.688297
 C        -1.179359         0.983588         2.234747
 C        -2.436909         1.342859         1.263028
 O        -3.863613         1.617254         1.693321
 C        -2.131023         0.231057         0.199121
 C        -2.526959         0.688264        -1.227747
 C        -2.365411         2.235653        -0.936591
 C        -1.644799         2.247408         0.438818
 H         0.697251        -0.238459         0.379223
 H        -1.021323         0.043420         2.739683
 H        -0.941605         1.965287         2.724500
 H        -4.074852         1.244723         2.584039
 H        -2.193728        -0.853387         0.408330
 H        -1.922743         0.115585        -1.884990
 H        -3.517580         0.342376        -1.430498
 H        -1.889915         2.782064        -1.711095
 H        -3.313254         2.754738        -0.847975
 H        -1.328935         3.125833         1.013752
