19
Iteration:  3071
 O         0.521707         0.602346         0.328156
 C        -0.851101         1.022002         0.650901
 C        -1.289365         0.956730         2.054835
 C        -2.498709         1.258166         1.309628
 O        -3.849135         1.582530         1.875771
 C        -2.048384         0.227861         0.208621
 C        -2.596771         0.739645        -1.152090
 C        -2.218991         2.283498        -1.078854
 C        -1.695339         2.369497         0.366495
 H         0.596763         0.768974        -0.644759
 H        -1.084154        -0.064942         2.344559
 H        -0.951449         1.691462         2.797672
 H        -4.117535         0.660403         2.133218
 H        -1.826901        -0.797401         0.556820
 H        -2.254052         0.136084        -1.979305
 H        -3.695862         0.592063        -1.100822
 H        -1.450069         2.592571        -1.807604
 H        -2.976157         2.963253        -1.265062
 H        -1.615987         3.385887         0.708168
