19
Iteration:  1516charge 0 multiplicity 1
 O         0.613044         0.690997         0.189292
 C        -0.744896         0.880030         0.603597
 C        -1.218324         1.020359         2.113140
 C        -2.521892         1.275955         1.282015
 O        -3.885752         1.664230         1.691781
 C        -2.138360         0.179607         0.267328
 C        -2.711003         0.715547        -1.058493
 C        -2.326992         2.284698        -0.935799
 C        -1.618348         2.205620         0.406483
 H         1.157946         1.535401         0.021604
 H        -1.118465         0.071558         2.784706
 H        -0.947569         1.885360         2.649073
 H        -4.316210         0.832779         2.066322
 H        -2.102246        -0.959850         0.462969
 H        -2.158901         0.297671        -1.922806
 H        -3.780132         0.373589        -1.066585
 H        -1.592328         2.509287        -1.775676
 H        -3.122451         3.078577        -1.031651
 H        -1.296579         3.122129         0.881613
