19
Iteration:  2382charge 0 multiplicity 1
 O         0.473162         0.833086         0.076517
 C        -0.806790         1.029697         0.707284
 C        -1.258277         0.960870         2.178107
 C        -2.548725         1.205223         1.339255
 O        -3.760208         1.620429         1.796434
 C        -2.212905         0.243243         0.224935
 C        -2.680610         0.710363        -1.150135
 C        -2.087016         2.172816        -1.074971
 C        -1.675470         2.229730         0.406393
 H         1.043705         0.209929         0.664157
 H        -1.266767        -0.084813         2.697246
 H        -0.920482         1.682527         2.965448
 H        -4.309950         0.925846         2.099060
 H        -2.203650        -0.792821         0.549919
 H        -2.256923         0.022720        -1.891524
 H        -3.704678         0.748074        -1.321702
 H        -1.205988         2.559808        -1.669735
 H        -2.862272         2.905281        -1.261224
 H        -1.481766         3.127463         0.931703
