19
Iteration:  4942
 O         0.511062         0.763457         0.320852
 C        -0.808791         1.094337         0.677184
 C        -1.284660         1.120323         2.114507
 C        -2.482243         1.358395         1.337989
 O        -3.788705         1.648883         1.834346
 C        -2.029436         0.206394         0.383052
 C        -2.534134         0.532585        -1.108904
 C        -2.278284         2.048100        -1.197598
 C        -1.820297         2.289957         0.209401
 H         0.592066        -0.105638        -0.297565
 H        -1.244260         0.121991         2.643509
 H        -0.977177         1.982932         2.664354
 H        -4.194633         0.801932         2.154185
 H        -2.226972        -0.853980         0.647817
 H        -1.792763         0.160030        -1.848553
 H        -3.662005         0.273801        -1.246941
 H        -1.589095         2.312755        -1.958491
 H        -3.084348         2.723072        -1.493563
 H        -1.519516         3.371154         0.583184
