19
Iteration:  2674charge 0 multiplicity 1
 O         0.477143         0.529456         0.295835
 C        -0.788180         1.061237         0.605352
 C        -1.240222         1.019808         2.080513
 C        -2.515329         1.348755         1.270788
 O        -3.802628         1.615619         1.812889
 C        -2.092879         0.219609         0.202152
 C        -2.466932         0.641537        -1.124457
 C        -2.314681         2.229221        -0.989363
 C        -1.796364         2.416644         0.409456
 H         0.603483         0.448473        -0.738072
 H        -1.094599         0.014929         2.447968
 H        -0.852539         1.797750         2.716174
 H        -4.092143         0.733929         2.352944
 H        -1.889794        -0.820482         0.517332
 H        -1.884715         0.219618        -1.883273
 H        -3.513207         0.456518        -1.467142
 H        -1.750044         2.681028        -1.845737
 H        -3.300374         2.714657        -0.942839
 H        -1.442537         3.367445         0.965820
