19
Iteration:   182charge 0 multiplicity 1
 O         0.420275         0.693610         0.056235
 C        -0.802114         1.001268         0.679655
 C        -1.313862         0.928733         2.158882
 C        -2.595950         1.208218         1.315327
 O        -3.822505         1.547789         1.869280
 C        -1.995142         0.223496         0.179323
 C        -2.541815         0.788177        -1.203585
 C        -2.183538         2.254751        -1.041802
 C        -1.771892         2.249299         0.452111
 H         1.225429         0.831515         0.677730
 H        -1.235179        -0.052638         2.722969
 H        -1.105928         1.786710         2.771049
 H        -3.723951         2.310572         2.638161
 H        -1.960010        -0.895246         0.437635
 H        -2.309348         0.356414        -2.186365
 H        -3.632503         0.524709        -1.155369
 H        -1.092459         2.350085        -1.558579
 H        -2.891307         3.086729        -1.387360
 H        -1.395402         3.156706         1.052962
