19
Iteration:  1276charge 0 multiplicity 1
 O         0.479963         0.802333         0.121004
 C        -0.869062         0.839165         0.656372
 C        -1.283268         1.042662         2.060468
 C        -2.602759         1.329673         1.289112
 O        -3.820499         1.624477         1.967767
 C        -2.113914         0.192186         0.226907
 C        -2.450672         0.738974        -1.165053
 C        -2.167241         2.242297        -0.981327
 C        -1.714711         2.194337         0.375405
 H         0.421960        -0.053466        -0.404356
 H        -1.218063         0.010747         2.612731
 H        -0.678345         1.908606         2.638189
 H        -4.160106         0.927974         2.418872
 H        -2.473495        -0.885693         0.433422
 H        -1.694657         0.486921        -1.878400
 H        -3.472902         0.466604        -1.505799
 H        -1.402093         2.669531        -1.576303
 H        -3.069166         2.750700        -1.195522
 H        -1.385095         3.120032         0.808372
