19
Iteration:  1256
 O         0.424208         0.757572         0.138725
 C        -0.827144         1.027724         0.637467
 C        -1.290674         0.918130         2.222605
 C        -2.478544         1.270309         1.309748
 O        -3.757757         1.595713         1.848478
 C        -2.133088         0.268434         0.208535
 C        -2.572689         0.683576        -1.203763
 C        -2.250765         2.234719        -1.079149
 C        -1.617078         2.295387         0.428043
 H         0.447476        -0.158598         0.193657
 H        -1.291685        -0.030149         2.793685
 H        -1.010675         1.799416         3.007247
 H        -4.064668         0.730205         2.299114
 H        -2.135779        -0.799022         0.389342
 H        -1.925383         0.130161        -1.982995
 H        -3.676177         0.709370        -1.383782
 H        -1.539389         2.599327        -1.807844
 H        -3.129512         2.878065        -1.156666
 H        -1.294175         3.292457         0.877622
