19
Iteration:  3717
 O         0.435642         0.632820         0.219928
 C        -0.792731         0.974082         0.629808
 C        -1.181584         1.026917         2.067320
 C        -2.554282         1.250526         1.321722
 O        -3.792795         1.564711         1.861297
 C        -2.090653         0.211817         0.193379
 C        -2.559101         0.789780        -1.187598
 C        -2.252519         2.321233        -1.043639
 C        -1.757335         2.242375         0.473523
 H         0.819006         0.205593         1.025960
 H        -1.155260         0.053583         2.695733
 H        -0.810893         1.730891         2.803363
 H        -4.461625         1.171871         1.361858
 H        -2.151867        -0.892797         0.250946
 H        -1.837574         0.468264        -1.993756
 H        -3.579353         0.799671        -1.568816
 H        -1.353055         2.576952        -1.604129
 H        -3.154655         2.933635        -1.312425
 H        -1.342871         3.164411         0.900056
