19
Iteration:  2650charge 0 multiplicity 1
 O         0.497539         0.721036         0.274150
 C        -0.762377         0.907061         0.707583
 C        -1.242864         1.013998         2.210420
 C        -2.449918         1.358155         1.324153
 O        -3.782968         1.634760         1.766039
 C        -2.181830         0.182748         0.222101
 C        -2.506691         0.751303        -1.201842
 C        -2.413114         2.216929        -1.089555
 C        -1.657157         2.220787         0.351720
 H         0.351963         0.342377        -0.601215
 H        -1.126841        -0.005197         2.646754
 H        -0.881848         1.874511         2.797548
 H        -3.999932         0.825296         2.344262
 H        -2.391223        -0.915298         0.457654
 H        -1.822360         0.368758        -1.886175
 H        -3.555395         0.393170        -1.560553
 H        -1.850197         2.752353        -1.868387
 H        -3.317407         2.826630        -0.804492
 H        -1.266616         3.212383         0.849877
