19
Iteration:  1821charge 0 multiplicity 1
 O         0.513320         0.806504         0.173439
 C        -0.838256         0.955486         0.646950
 C        -1.259143         0.901659         2.137339
 C        -2.484264         1.331130         1.282602
 O        -3.756222         1.687878         1.756165
 C        -2.135704         0.196384         0.260315
 C        -2.603461         0.631455        -1.121155
 C        -2.344697         2.202005        -0.991687
 C        -1.669134         2.296393         0.384770
 H         0.894818         0.066474         0.607714
 H        -1.264719        -0.066562         2.631544
 H        -0.828264         1.689648         2.657498
 H        -4.093725         0.853877         2.130456
 H        -2.199694        -0.824841         0.507225
 H        -1.808126         0.402802        -1.828845
 H        -3.605919         0.363786        -1.483169
 H        -1.672199         2.533419        -1.743629
 H        -3.232937         2.845873        -0.991141
 H        -1.285753         3.236853         0.754581
