19
Iteration:  1004charge 0 multiplicity 1
 O         0.310807         0.777834         0.180163
 C        -0.842766         0.991718         0.711923
 C        -1.230621         0.825969         2.170402
 C        -2.453025         1.361643         1.363213
 O        -3.701676         1.534650         1.812648
 C        -2.161719         0.258721         0.219903
 C        -2.569457         0.774567        -1.160274
 C        -2.240563         2.292450        -1.073058
 C        -1.610561         2.298040         0.341041
 H         0.758578        -0.077785         0.373978
 H        -1.379624        -0.137755         2.527293
 H        -0.796432         1.433093         3.032196
 H        -4.313494         0.653426         1.850766
 H        -2.230765        -0.802918         0.395102
 H        -1.939048         0.194394        -1.896954
 H        -3.641992         0.618786        -1.391562
 H        -1.472479         2.569030        -1.868450
 H        -3.243687         2.865347        -1.170066
 H        -1.181264         3.234108         0.696236
