19
Iteration:   399
 O         0.405612         0.694296         0.095778
 C        -0.790382         0.975218         0.713520
 C        -1.262195         0.939533         2.275444
 C        -2.445205         1.275242         1.369317
 O        -3.785947         1.465337         1.641710
 C        -2.121911         0.224383         0.291218
 C        -2.650254         0.788647        -1.131515
 C        -2.245141         2.285131        -1.022448
 C        -1.637080         2.202528         0.374700
 H         0.778071         1.579777        -0.057051
 H        -1.132182        -0.134741         2.701011
 H        -0.820549         1.649485         3.031107
 H        -3.910512         2.439363         1.943343
 H        -2.376647        -0.866973         0.610765
 H        -2.117216         0.321324        -2.004847
 H        -3.753357         0.523935        -1.198638
 H        -1.475729         2.485708        -1.721327
 H        -3.001434         3.062984        -0.978052
 H        -1.280030         3.254799         0.734969
