19
Iteration:  2385charge 0 multiplicity 1
 O         0.490272         0.823790         0.068119
 C        -0.805191         1.022899         0.727761
 C        -1.258294         0.963408         2.205546
 C        -2.545493         1.188771         1.350013
 O        -3.779604         1.611240         1.801904
 C        -2.226619         0.242160         0.225797
 C        -2.683403         0.733377        -1.163170
 C        -2.079997         2.174148        -1.064121
 C        -1.672808         2.224955         0.382376
 H         0.984364         0.282790         0.587516
 H        -1.097238         0.031639         2.701935
 H        -0.940878         1.725835         2.920559
 H        -4.335042         0.894352         2.125177
 H        -2.240087        -0.809546         0.531410
 H        -2.177228         0.108232        -1.849300
 H        -3.792157         0.787831        -1.407896
 H        -1.203728         2.427854        -1.735906
 H        -2.822127         2.942706        -1.255485
 H        -1.484384         3.232228         0.794606
