19
Iteration:  1327charge 0 multiplicity 1
 O         0.507578         0.696900         0.120067
 C        -0.833877         0.982361         0.660531
 C        -1.310634         0.858646         2.141674
 C        -2.524255         1.377286         1.281807
 O        -3.803963         1.638897         1.779275
 C        -2.050479         0.222680         0.254243
 C        -2.555161         0.652035        -1.080125
 C        -2.253932         2.240373        -0.983587
 C        -1.686477         2.344007         0.430110
 H         0.568567         1.158781        -0.669862
 H        -1.436731        -0.114867         2.607247
 H        -1.022487         1.519600         2.808162
 H        -4.101591         0.912038         2.465760
 H        -1.982403        -0.866743         0.492062
 H        -1.956569         0.308595        -1.952046
 H        -3.586791         0.291074        -1.056299
 H        -1.536340         2.515376        -1.815213
 H        -3.246755         2.687119        -1.261522
 H        -1.374534         3.266763         0.846910
