19
Iteration:  3367charge 0 multiplicity 1
 O         0.443556         0.746874         0.181865
 C        -0.790168         0.966866         0.680971
 C        -1.255597         0.872923         2.141313
 C        -2.543716         1.274721         1.316631
 O        -3.808011         1.606420         1.832904
 C        -2.190792         0.242330         0.245092
 C        -2.519820         0.677753        -1.174386
 C        -2.196120         2.214602        -1.000279
 C        -1.652371         2.225722         0.418778
 H         0.791338         1.617192        -0.230612
 H        -1.162015        -0.126265         2.629543
 H        -0.731403         1.587789         2.729269
 H        -4.460677         1.771065         1.184799
 H        -2.447502        -0.775068         0.560559
 H        -1.782023         0.304633        -1.917737
 H        -3.551815         0.567066        -1.473601
 H        -1.641348         2.791941        -1.733807
 H        -3.116298         2.840399        -0.903589
 H        -1.282607         3.233950         0.700172
