19
Iteration:  2846
 O         0.518517         0.656179         0.169778
 C        -0.779962         1.094506         0.698756
 C        -1.244181         0.955921         2.147060
 C        -2.490015         1.265089         1.336178
 O        -3.805371         1.694889         1.769643
 C        -2.098630         0.200397         0.252901
 C        -2.499032         0.678136        -1.127497
 C        -2.323284         2.198212        -1.034224
 C        -1.771374         2.332348         0.422296
 H         0.200648         0.275249        -0.638064
 H        -1.334003         0.028526         2.737180
 H        -0.936636         1.739522         2.857016
 H        -4.135090         0.697340         2.016644
 H        -2.184108        -0.874321         0.407007
 H        -1.752479         0.221125        -1.891079
 H        -3.413197         0.235210        -1.594126
 H        -1.574904         2.433402        -1.724942
 H        -3.257835         2.813117        -1.147010
 H        -1.538651         3.303489         0.915831
