19
Iteration:  3751
 O         0.490779         0.777104         0.220794
 C        -0.756114         0.971566         0.697081
 C        -1.345162         0.905380         2.117439
 C        -2.508164         1.375317         1.232163
 O        -3.836248         1.467769         1.973321
 C        -2.193839         0.258856         0.204221
 C        -2.596349         0.771957        -1.173721
 C        -2.231622         2.268738        -1.081138
 C        -1.507014         2.238973         0.363580
 H         0.974313         0.111245         0.676005
 H        -1.580198        -0.150976         2.315189
 H        -0.998539         1.657012         2.837778
 H        -4.523890         1.445727         1.373273
 H        -2.238957        -0.794812         0.526306
 H        -2.010013         0.217423        -1.994616
 H        -3.648284         0.579778        -1.479026
 H        -1.695045         2.703504        -1.949920
 H        -3.128310         2.893345        -1.055922
 H        -0.959797         3.107520         0.648503
