19
Iteration:  2897
 O         0.557821         0.806652         0.215882
 C        -0.793680         0.968537         0.699265
 C        -1.216510         0.917897         2.164513
 C        -2.512392         1.250436         1.293421
 O        -3.781740         1.695980         1.765748
 C        -2.154250         0.262790         0.301953
 C        -2.638944         0.632162        -1.165563
 C        -2.217754         2.184632        -1.018762
 C        -1.775306         2.255997         0.398655
 H         0.528314         0.695677        -0.785453
 H        -1.168536        -0.107020         2.563709
 H        -0.826637         1.775440         2.768518
 H        -4.286292         0.859513         1.781099
 H        -2.265542        -0.800396         0.635238
 H        -2.089165         0.055753        -1.966297
 H        -3.733587         0.510454        -1.360026
 H        -1.314654         2.447609        -1.697183
 H        -3.095238         2.846862        -1.216537
 H        -1.454242         3.187693         0.807408
