19
Iteration:  1197charge 0 multiplicity 1
 O         0.478742         0.746070         0.142222
 C        -0.743279         0.893556         0.715949
 C        -1.219966         0.989014         2.190373
 C        -2.476572         1.227998         1.307349
 O        -3.709784         1.623673         1.626566
 C        -2.154901         0.182726         0.244569
 C        -2.789695         0.804603        -1.129328
 C        -2.286512         2.249581        -0.928844
 C        -1.627448         2.167197         0.410733
 H         1.080847         1.440085         0.658105
 H        -1.310196        -0.059847         2.786899
 H        -0.979200         1.908091         2.772946
 H        -4.229706         0.902653         1.857591
 H        -2.198085        -0.982165         0.335447
 H        -2.398410         0.400096        -2.010048
 H        -3.859868         0.845391        -1.345915
 H        -1.445228         2.491576        -1.562415
 H        -3.027908         3.033058        -1.040605
 H        -1.349418         3.098897         0.820667
