19
Iteration:  2155charge 0 multiplicity 1
 O         0.411245         0.745510         0.212931
 C        -0.802178         0.934565         0.673115
 C        -1.177610         1.046818         2.126371
 C        -2.487495         1.232688         1.282867
 O        -3.823428         1.626459         1.667496
 C        -2.075571         0.146439         0.236990
 C        -2.548338         0.718843        -1.156349
 C        -2.356895         2.309870        -0.916988
 C        -1.623494         2.236703         0.366867
 H         0.678543        -0.214557         0.416203
 H        -1.019601         0.183361         2.722093
 H        -0.886157         1.844418         2.812480
 H        -4.041195         1.230520         2.558310
 H        -2.271583        -0.924724         0.462832
 H        -1.954776         0.439673        -2.072096
 H        -3.649873         0.333301        -1.295384
 H        -1.769154         2.852251        -1.734842
 H        -3.317423         2.794939        -0.804451
 H        -1.313131         3.177636         0.793963
