19
Iteration:  1674
 O         0.529907         0.822385         0.178440
 C        -0.750361         0.929255         0.633255
 C        -1.222677         0.995634         2.130385
 C        -2.484829         1.289328         1.267147
 O        -3.763656         1.646187         1.655473
 C        -2.152749         0.171751         0.205243
 C        -2.703501         0.679741        -1.106579
 C        -2.322043         2.233551        -0.944792
 C        -1.649465         2.195148         0.445471
 H         1.028881         0.122738         0.663304
 H        -1.181621         0.291667         2.878200
 H        -0.914719         1.983667         2.622850
 H        -4.319040         0.967204         2.220272
 H        -2.352570        -0.846931         0.717339
 H        -2.258396         0.100689        -1.946870
 H        -3.782387         0.519771        -1.021068
 H        -1.557558         2.529250        -1.665815
 H        -3.181494         2.874600        -1.022739
 H        -1.307183         3.207930         0.946326
