19
Iteration:  1040
 O         0.626921         0.784455         0.103627
 C        -0.704662         0.894668         0.643908
 C        -1.250321         0.965023         2.147865
 C        -2.534796         1.182109         1.297716
 O        -3.881202         1.707501         1.746585
 C        -2.159014         0.103282         0.197797
 C        -2.735523         0.784622        -1.058359
 C        -2.234990         2.326151        -0.922550
 C        -1.694079         2.180485         0.443699
 H         1.319839         0.258193         0.499149
 H        -1.253567        -0.007762         2.624607
 H        -0.836867         1.895766         2.604966
 H        -4.400210         0.800766         1.475677
 H        -2.267932        -0.943572         0.294238
 H        -2.439803         0.370881        -2.026426
 H        -3.774370         0.814690        -1.036706
 H        -1.390867         2.567023        -1.665690
 H        -2.937017         3.209126        -1.054389
 H        -1.188591         3.106241         0.988389
