19
Iteration:  1357charge 0 multiplicity 1
 O         0.508819         0.712764         0.265719
 C        -0.776001         0.961859         0.693316
 C        -1.093195         0.988991         2.137123
 C        -2.511960         1.218875         1.295069
 O        -3.782740         1.606401         1.647367
 C        -2.215369         0.168317         0.248038
 C        -2.737665         0.772564        -1.075603
 C        -2.310820         2.237557        -0.995858
 C        -1.605331         2.193697         0.358759
 H         0.876615         1.624449        -0.068596
 H        -0.921083         0.154908         2.821405
 H        -0.803505         2.048745         2.742464
 H        -4.172575         0.906175         2.030565
 H        -2.252057        -0.842961         0.393529
 H        -2.339002         0.381876        -2.117451
 H        -3.831698         0.588446        -1.183746
 H        -1.645619         2.620654        -1.811749
 H        -3.209302         2.896443        -0.920692
 H        -1.310653         3.177986         0.883361
