19
Iteration:  1902
 O         0.415017         0.831826         0.066667
 C        -0.857354         0.970823         0.695473
 C        -1.227234         0.982697         2.191074
 C        -2.525209         1.307879         1.337734
 O        -3.886954         1.613566         1.832863
 C        -2.073636         0.221453         0.222211
 C        -2.576751         0.692686        -1.139121
 C        -2.143907         2.145812        -1.074994
 C        -1.647737         2.273561         0.420185
 H         0.791241         0.016823         0.219162
 H        -1.324570        -0.059573         2.717448
 H        -0.693741         1.766266         2.905693
 H        -4.162925         0.891699         2.362444
 H        -2.238215        -0.878919         0.367646
 H        -2.177939         0.120898        -2.023301
 H        -3.705533         0.565177        -1.284115
 H        -1.169152         2.368523        -1.735460
 H        -2.894413         2.919161        -1.345606
 H        -1.255962         3.210866         0.899047
