19
Iteration:  3255
 O         0.480388         0.820856         0.180438
 C        -0.782379         0.908324         0.699116
 C        -1.313822         0.898386         2.173557
 C        -2.507181         1.294705         1.262685
 O        -3.784705         1.597244         1.778148
 C        -2.105305         0.214693         0.243078
 C        -2.597070         0.730487        -1.113861
 C        -2.177562         2.309466        -0.977533
 C        -1.656046         2.199033         0.447497
 H         0.416778         0.407894        -0.645511
 H        -1.401202        -0.101831         2.554791
 H        -0.875596         1.575113         2.919909
 H        -4.612538         1.397493         1.207524
 H        -2.186075        -0.879062         0.320982
 H        -2.279709         0.200055        -2.014917
 H        -3.714158         0.620507        -1.129890
 H        -1.404134         2.513743        -1.700704
 H        -3.116627         2.935169        -1.204542
 H        -1.275541         3.159533         0.861039
