19
Iteration:  3771charge 0 multiplicity 1
 O         0.519770         0.830887         0.181765
 C        -0.831993         0.941900         0.619733
 C        -1.283885         0.860795         2.141593
 C        -2.575434         1.281404         1.372416
 O        -3.806524         1.537963         1.856993
 C        -2.129592         0.246090         0.232059
 C        -2.593358         0.690360        -1.153708
 C        -2.162315         2.257623        -1.026446
 C        -1.650342         2.301640         0.415174
 H         0.735877        -0.169312         0.305605
 H        -1.376419        -0.201403         2.554688
 H        -0.770458         1.629411         2.714444
 H        -4.373636         1.995862         1.229831
 H        -2.404718        -0.792798         0.451664
 H        -2.043813         0.309872        -2.046083
 H        -3.642432         0.714891        -1.420596
 H        -1.392927         2.540611        -1.757628
 H        -3.001331         2.987102        -1.291484
 H        -1.414430         3.301578         0.749034
