19
Iteration:  3364
 O         0.468463         0.741046         0.195706
 C        -0.818474         0.948702         0.667466
 C        -1.244620         0.855822         2.128570
 C        -2.566240         1.344951         1.350729
 O        -3.785845         1.573083         1.833186
 C        -2.198259         0.258669         0.223090
 C        -2.509530         0.692261        -1.166066
 C        -2.198733         2.218054        -0.978856
 C        -1.667500         2.204370         0.397746
 H         0.749549         1.612438        -0.200821
 H        -1.158532        -0.042971         2.713210
 H        -0.687833         1.654962         2.689602
 H        -4.541349         1.829417         1.136195
 H        -2.464883        -0.764089         0.459110
 H        -1.738326         0.300124        -1.819093
 H        -3.557705         0.508934        -1.482956
 H        -1.658079         2.722819        -1.763209
 H        -3.177394         2.835652        -1.021827
 H        -1.244336         3.206169         0.675413
