19
Iteration:  2411charge 0 multiplicity 1
 O         0.437281         0.807149         0.107114
 C        -0.880459         0.888175         0.649439
 C        -1.210250         1.088132         2.109297
 C        -2.536164         1.336335         1.319939
 O        -3.877097         1.492635         1.843138
 C        -2.169385         0.236409         0.228659
 C        -2.622845         0.729477        -1.117687
 C        -2.032936         2.248436        -1.056643
 C        -1.646648         2.223263         0.415643
 H         0.812177         0.057743         0.477569
 H        -1.282539         0.179268         2.762662
 H        -0.684555         1.866038         2.651517
 H        -4.150643         0.686183         2.178231
 H        -2.338388        -0.809283         0.580338
 H        -2.194979         0.056712        -1.953726
 H        -3.769729         0.839885        -1.140298
 H        -1.147833         2.424076        -1.669765
 H        -2.873165         2.957617        -1.331348
 H        -1.153075         3.123207         0.960912
