19
Iteration:  3432charge 0 multiplicity 1
 O         0.415348         0.692781         0.177852
 C        -0.884938         1.009526         0.594563
 C        -1.247443         0.976076         2.138293
 C        -2.503426         1.234419         1.339130
 O        -3.806286         1.452945         1.841649
 C        -2.204832         0.291159         0.261754
 C        -2.609494         0.809175        -1.112040
 C        -2.169176         2.252984        -1.029192
 C        -1.595073         2.304035         0.344129
 H         0.968677         0.954233         0.869544
 H        -1.086259         0.031433         2.692448
 H        -0.698074         1.756586         2.581355
 H        -4.314058         1.224185         1.085313
 H        -2.331308        -0.743241         0.552475
 H        -1.847558         0.158935        -1.541210
 H        -3.530438         0.331926        -1.415985
 H        -1.402660         2.418442        -1.755275
 H        -2.949213         3.014709        -1.181402
 H        -0.989022         3.164579         0.672723
