19
Iteration:  3777
 O         0.453073         0.813198         0.172652
 C        -0.792731         0.987062         0.698084
 C        -1.255976         0.875588         2.138487
 C        -2.537664         1.247299         1.299585
 O        -3.772407         1.564235         1.814970
 C        -2.162599         0.194341         0.218748
 C        -2.604073         0.728785        -1.175988
 C        -2.153331         2.255973        -1.034664
 C        -1.722498         2.280262         0.511868
 H         0.801841        -0.032006         0.100004
 H        -1.281613        -0.109159         2.554773
 H        -0.740432         1.707462         2.656541
 H        -4.263906         2.103328         1.223888
 H        -2.202478        -0.838966         0.660596
 H        -2.142196         0.180676        -2.003579
 H        -3.683581         0.557653        -1.486173
 H        -1.296039         2.522445        -1.686206
 H        -2.938356         2.934757        -1.334735
 H        -1.397090         3.278549         0.957134
