19
Iteration:  4383charge 0 multiplicity 1
 O         0.512202         0.725121         0.338033
 C        -0.768684         1.109697         0.693522
 C        -1.238201         1.124498         2.131408
 C        -2.471747         1.365602         1.219770
 O        -3.773626         1.590590         1.796176
 C        -2.093726         0.249780         0.317106
 C        -2.636866         0.525043        -1.049233
 C        -2.309315         2.031296        -1.092596
 C        -1.701396         2.324874         0.284411
 H         0.494438         0.280826        -0.451888
 H        -1.236887         0.144617         2.585179
 H        -0.768783         1.970600         2.718304
 H        -4.378861         1.112565         1.228911
 H        -2.076367        -0.674575         0.907136
 H        -2.046973         0.062692        -1.855700
 H        -3.694607         0.277122        -1.272160
 H        -1.729082         2.244817        -1.973757
 H        -3.239682         2.598888        -1.366216
 H        -1.492787         3.342699         0.603662
