19
Iteration:  1005charge 0 multiplicity 1
 O         0.312047         0.772203         0.186438
 C        -0.840170         0.999456         0.708894
 C        -1.235177         0.821816         2.161886
 C        -2.451357         1.354143         1.362791
 O        -3.701605         1.538599         1.807160
 C        -2.158557         0.266791         0.219702
 C        -2.576239         0.779698        -1.153005
 C        -2.240521         2.279322        -1.068794
 C        -1.617124         2.291545         0.343605
 H         0.769334        -0.011658         0.362233
 H        -1.344782        -0.122254         2.560988
 H        -0.774469         1.409358         3.009255
 H        -4.296602         0.663631         1.820778
 H        -2.221999        -0.769091         0.374645
 H        -1.973555         0.193635        -1.903337
 H        -3.607768         0.635999        -1.380700
 H        -1.468803         2.553203        -1.881703
 H        -3.239049         2.872255        -1.155818
 H        -1.178987         3.274553         0.706733
