19
Iteration:  2532
 O         0.417549         0.627666         0.263381
 C        -0.817941         1.061362         0.632675
 C        -1.251638         0.998610         2.170668
 C        -2.482623         1.255711         1.325534
 O        -3.736238         1.588228         1.776192
 C        -2.121523         0.234141         0.250070
 C        -2.572138         0.686626        -1.144375
 C        -2.259534         2.258707        -1.020206
 C        -1.723258         2.320620         0.364967
 H         0.788509         0.840188        -0.680657
 H        -1.221550         0.036200         2.655244
 H        -0.880250         1.801745         2.771552
 H        -4.187353         0.740971         2.215107
 H        -2.050497        -0.861920         0.453588
 H        -1.913588         0.185006        -1.930847
 H        -3.662707         0.627447        -1.391036
 H        -1.492210         2.330769        -1.795132
 H        -3.143000         2.857485        -1.265429
 H        -1.394026         3.374079         0.700196
