19
Iteration:  4917charge 0 multiplicity 1
 O         0.493072         0.775675         0.232039
 C        -0.836108         1.020648         0.705845
 C        -1.227429         1.177446         2.146462
 C        -2.527140         1.359186         1.296596
 O        -3.891611         1.644359         1.757794
 C        -2.097974         0.218364         0.356942
 C        -2.500029         0.469807        -1.162094
 C        -2.224687         2.025053        -1.088208
 C        -1.730613         2.277058         0.340436
 H         0.456236         0.363825        -0.725055
 H        -1.185826         0.432306         2.896651
 H        -0.803665         2.151661         2.404813
 H        -3.890075         1.233671         2.652042
 H        -2.032963        -0.841553         0.688825
 H        -1.760913        -0.010081        -1.748629
 H        -3.574647         0.392709        -1.477931
 H        -1.611614         2.461273        -1.840809
 H        -3.143205         2.492833        -1.285582
 H        -1.351509         3.211014         0.759475
