19
Iteration:     7
 O         0.417734         0.662497         0.113898
 C        -0.805030         0.982805         0.591414
 C        -1.284755         0.876792         2.123474
 C        -2.520790         1.284163         1.330342
 O        -3.866913         1.458439         1.753103
 C        -2.124668         0.252582         0.162614
 C        -2.562641         0.844847        -1.109776
 C        -2.158967         2.261393        -0.959915
 C        -1.689409         2.272146         0.478118
 H         1.120480         1.122080         0.497925
 H        -1.256934        -0.086556         2.732932
 H        -0.755704         1.603240         2.783543
 H        -3.754686         2.221962         2.285518
 H        -2.093046        -0.775670         0.632889
 H        -1.885719         0.375271        -1.859808
 H        -3.628812         0.764897        -1.438631
 H        -1.382689         2.573509        -1.669672
 H        -3.001387         2.971909        -1.020479
 H        -1.428706         3.157777         1.087536
