19
Iteration:  1390charge 0 multiplicity 1
 O         0.568535         0.656490         0.160820
 C        -0.717593         0.979776         0.675337
 C        -1.247786         0.939921         2.139916
 C        -2.485348         1.364832         1.267136
 O        -3.781441         1.618128         1.734306
 C        -2.072667         0.229150         0.224016
 C        -2.732130         0.709862        -1.041356
 C        -2.344464         2.172333        -1.023211
 C        -1.708738         2.271451         0.403090
 H         1.122322         1.337606         0.498067
 H        -1.358088        -0.047374         2.625686
 H        -0.913168         1.793610         2.988450
 H        -4.224699         0.684067         1.748052
 H        -2.106649        -0.768311         0.488952
 H        -2.421228         0.325799        -2.092878
 H        -3.831974         0.695412        -0.999889
 H        -1.574186         2.509314        -1.744093
 H        -3.139724         2.927670        -1.066705
 H        -1.434292         3.311012         0.798174
