19
Iteration:  3508
 O         0.448837         0.824484         0.119002
 C        -0.837191         0.856547         0.618313
 C        -1.250865         0.816728         2.147324
 C        -2.468487         1.372541         1.314545
 O        -3.826176         1.567396         1.846079
 C        -2.254306         0.259791         0.241865
 C        -2.491383         0.725829        -1.171078
 C        -2.270848         2.194012        -1.006424
 C        -1.604960         2.251179         0.461856
 H         1.103600         1.055180         0.873298
 H        -1.281784        -0.090848         2.820307
 H        -0.807240         1.648142         2.687620
 H        -4.225812         1.919812         0.948718
 H        -2.391079        -0.759730         0.575153
 H        -1.729184         0.346927        -1.919589
 H        -3.567960         0.375541        -1.379949
 H        -1.570232         2.511436        -1.752694
 H        -3.111652         2.943474        -1.122875
 H        -1.247514         3.229880         0.862498
