19
Iteration:   239
 O         0.513302         0.804101         0.137548
 C        -0.853898         0.950167         0.697137
 C        -1.208054         0.901159         2.208801
 C        -2.485002         1.333412         1.354726
 O        -3.848781         1.447631         1.734647
 C        -2.169501         0.245097         0.236604
 C        -2.644306         0.750625        -1.170437
 C        -2.202214         2.250477        -1.005848
 C        -1.627284         2.287076         0.380924
 H         0.780815        -0.158325         0.059943
 H        -1.371044        -0.023913         2.790464
 H        -0.711734         1.685020         2.803073
 H        -4.082042         2.232763         2.198617
 H        -2.338754        -0.787443         0.427111
 H        -2.058091         0.320861        -1.989341
 H        -3.721183         0.564300        -1.294000
 H        -1.439248         2.562043        -1.825412
 H        -3.092743         2.942574        -1.059785
 H        -1.313679         3.190181         0.818190
