19
Iteration:  2179
 O         0.605227         0.776227         0.201366
 C        -0.746672         0.948990         0.589919
 C        -1.289487         0.955158         2.167641
 C        -2.470069         1.293301         1.287570
 O        -3.800603         1.624288         1.688478
 C        -2.161338         0.234175         0.218520
 C        -2.691671         0.707669        -1.111250
 C        -2.311488         2.245485        -0.981208
 C        -1.660425         2.248648         0.427025
 H         0.778277        -0.069123         0.450311
 H        -1.240207         0.071993         2.799051
 H        -0.956307         1.767633         2.889053
 H        -4.075873         1.031273         2.344819
 H        -2.236522        -0.868028         0.353549
 H        -2.136856         0.201726        -1.906026
 H        -3.752914         0.476431        -1.204654
 H        -1.600574         2.545483        -1.724365
 H        -3.256530         2.794542        -1.028021
 H        -1.415218         3.222400         0.910584
