19
Iteration:  3198charge 0 multiplicity 1
 O         0.483500         0.696320         0.271456
 C        -0.858452         0.869404         0.654749
 C        -1.319128         0.990036         2.206200
 C        -2.504548         1.387962         1.365192
 O        -3.769265         1.388390         1.868306
 C        -2.219799         0.232076         0.197460
 C        -2.517249         0.763936        -1.221881
 C        -2.203147         2.318606        -1.001565
 C        -1.613194         2.309084         0.306842
 H         0.865802         0.450383        -0.680947
 H        -1.205367         0.040855         2.764352
 H        -0.892429         1.921501         2.608129
 H        -4.321179         2.063370         1.686759
 H        -2.440807        -0.844436         0.356473
 H        -1.809463         0.225428        -1.887140
 H        -3.596569         0.626332        -1.433789
 H        -1.744734         2.806228        -1.899611
 H        -3.284885         2.802520        -1.170682
 H        -1.167906         3.262854         0.660692
