19
Iteration:   249
 O         0.562073         0.760313         0.115259
 C        -0.723294         0.994536         0.686376
 C        -1.279300         0.952557         2.244448
 C        -2.520411         1.278748         1.380451
 O        -3.839622         1.505935         1.702524
 C        -2.151098         0.240877         0.238326
 C        -2.608130         0.764756        -1.232856
 C        -2.261177         2.231528        -1.007959
 C        -1.683554         2.214670         0.451564
 H         0.479470        -0.176463        -0.009369
 H        -1.164967        -0.068949         2.678073
 H        -0.974830         1.767516         2.899009
 H        -3.792557         2.178242         2.287586
 H        -2.148426        -0.811703         0.516233
 H        -2.401629         0.196987        -2.131987
 H        -3.709300         0.825574        -1.205481
 H        -1.524644         2.805385        -1.715290
 H        -3.209295         2.859723        -1.074798
 H        -1.383679         3.202028         0.852179
