19
Iteration:  3106
 O         0.548278         0.747813         0.274712
 C        -0.795551         0.924948         0.614470
 C        -1.282603         0.968023         2.122254
 C        -2.550669         1.291517         1.306897
 O        -3.772508         1.536057         1.700233
 C        -2.163494         0.180813         0.299766
 C        -2.697047         0.736864        -1.141264
 C        -2.242546         2.277973        -1.031467
 C        -1.574883         2.229799         0.429346
 H         0.554925         1.127826        -0.621166
 H        -1.164574        -0.024934         2.607371
 H        -0.990000         1.861489         2.725704
 H        -4.239156         1.337223         2.579926
 H        -2.370640        -0.868111         0.557180
 H        -2.042303         0.306414        -1.928570
 H        -3.731541         0.690244        -1.449552
 H        -1.377920         2.565586        -1.696476
 H        -2.912172         3.103445        -1.096262
 H        -1.451590         3.206581         0.834021
