19
Iteration:   476
 O         0.431928         0.736734         0.174781
 C        -0.808261         0.939853         0.656126
 C        -1.286294         0.965660         2.042966
 C        -2.519590         1.361375         1.252978
 O        -3.795403         1.490513         1.951427
 C        -2.213636         0.235140         0.226950
 C        -2.474088         0.707572        -1.244868
 C        -2.251494         2.264403        -1.010492
 C        -1.686852         2.270271         0.366007
 H         0.955171         0.276686         0.944960
 H        -1.377913        -0.070741         2.534444
 H        -0.811805         1.809527         2.597101
 H        -3.609471         2.079229         2.765244
 H        -2.230144        -0.904218         0.465784
 H        -1.759363         0.199624        -1.920740
 H        -3.569659         0.521951        -1.435696
 H        -1.545357         2.665785        -1.694217
 H        -3.203012         2.799097        -1.102870
 H        -1.156478         3.226844         0.655098
