19
Iteration:  3322
 O         0.471703         0.555095         0.272057
 C        -0.875562         1.076210         0.684263
 C        -1.320971         1.010226         2.116036
 C        -2.516287         1.264153         1.234757
 O        -3.741419         1.489996         1.969243
 C        -2.131848         0.320584         0.139462
 C        -2.485631         0.781158        -1.168264
 C        -2.259149         2.185405        -1.063661
 C        -1.682319         2.257551         0.395793
 H         0.901210         1.110951        -0.510540
 H        -1.200717         0.031299         2.519718
 H        -1.223960         1.837929         2.804186
 H        -4.381044         1.837022         1.372354
 H        -1.812466        -0.714701         0.169190
 H        -1.974563         0.197245        -1.940421
 H        -3.573946         0.599267        -1.198846
 H        -1.515358         2.660087        -1.648537
 H        -3.114185         2.906776        -1.084577
 H        -1.525274         3.229884         0.919129
