19
Iteration:  3735
 O         0.505808         0.700485         0.230778
 C        -0.880457         0.959535         0.645381
 C        -1.358483         0.938639         2.151327
 C        -2.539953         1.293835         1.289057
 O        -3.683876         1.489637         1.911188
 C        -2.198642         0.266090         0.167910
 C        -2.566459         0.770130        -1.239269
 C        -2.209717         2.286332        -1.016836
 C        -1.609117         2.338938         0.308980
 H         0.962699         0.193611         0.972578
 H        -1.293014         0.067260         2.851662
 H        -0.946141         1.759987         2.775741
 H        -4.360132         1.101945         1.377499
 H        -2.433891        -0.764017         0.499310
 H        -2.019008         0.226818        -2.016081
 H        -3.649731         0.481751        -1.377446
 H        -1.532281         2.642455        -1.796703
 H        -3.139964         2.933920        -0.872432
 H        -1.378543         3.247837         0.943658
