19
Iteration:  1715
 O         0.551925         0.811605         0.176082
 C        -0.809403         0.983931         0.628625
 C        -1.237989         0.910590         2.168804
 C        -2.456264         1.328597         1.212113
 O        -3.777758         1.613195         1.680331
 C        -2.100578         0.287689         0.296059
 C        -2.708426         0.633533        -1.035461
 C        -2.252663         2.155729        -0.993629
 C        -1.693885         2.325293         0.432615
 H         0.648947        -0.107518         0.064010
 H        -1.322870        -0.025696         2.772208
 H        -0.878534         1.767498         2.818908
 H        -4.140081         0.789567         1.752534
 H        -2.332087        -0.795908         0.666651
 H        -2.380648         0.176438        -1.981069
 H        -3.834657         0.621621        -0.954089
 H        -1.457485         2.377700        -1.833989
 H        -3.166300         2.787976        -1.043867
 H        -1.402822         3.293266         0.832039
