19
Iteration:  4689charge 0 multiplicity 1
 O         0.598102         0.701680         0.430802
 C        -0.756139         1.100851         0.664798
 C        -1.271925         1.188699         2.099018
 C        -2.545171         1.372499         1.272359
 O        -3.804948         1.506891         1.781921
 C        -2.115556         0.201599         0.258963
 C        -2.652933         0.545680        -1.096409
 C        -2.326410         2.029489        -1.168840
 C        -1.734712         2.299816         0.277883
 H         0.787860         0.701090        -0.496840
 H        -1.002835         0.342011         2.720753
 H        -1.039024         2.224547         2.493590
 H        -3.705006         1.941451         2.639797
 H        -2.002856        -0.833440         0.595205
 H        -2.148602         0.054540        -1.906162
 H        -3.730245         0.216886        -1.168028
 H        -1.652208         2.352759        -1.901031
 H        -3.163870         2.756101        -1.361217
 H        -1.199548         3.211514         0.604021
