19
Iteration:  3832charge 0 multiplicity 1
 O         0.439034         0.811138         0.061398
 C        -0.789095         1.004469         0.701392
 C        -1.268960         0.881417         2.162069
 C        -2.525856         1.352769         1.336472
 O        -3.848301         1.461983         1.721057
 C        -2.256322         0.253735         0.250606
 C        -2.516882         0.747616        -1.104807
 C        -2.150669         2.210537        -0.967191
 C        -1.608793         2.260983         0.435343
 H         0.900733        -0.035650         0.104940
 H        -1.311213        -0.132931         2.556898
 H        -0.788325         1.494968         2.927930
 H        -4.169824         2.295541         1.972890
 H        -2.621945        -0.706143         0.683204
 H        -1.843603         0.207534        -1.798930
 H        -3.611073         0.514241        -1.330254
 H        -1.402251         2.480017        -1.709949
 H        -3.021673         2.852348        -1.008576
 H        -1.185245         3.295924         0.620846
