19
Iteration:  2834
 O         0.463096         0.614166         0.233220
 C        -0.775842         1.017671         0.629833
 C        -1.243707         0.992907         2.126923
 C        -2.529085         1.303861         1.330318
 O        -3.774684         1.611558         1.758185
 C        -2.060802         0.275057         0.295530
 C        -2.481177         0.680643        -1.091291
 C        -2.313596         2.250902        -1.027673
 C        -1.837731         2.291104         0.371276
 H         0.466204         0.169879        -0.696278
 H        -0.993963        -0.045107         2.399264
 H        -0.921269         1.821842         2.764258
 H        -4.305679         0.929948         2.234316
 H        -1.880957        -0.765150         0.602900
 H        -1.654446         0.396917        -1.842455
 H        -3.529994         0.479100        -1.341492
 H        -1.567288         2.719154        -1.632246
 H        -3.234406         2.845051        -1.337609
 H        -1.489303         3.267555         0.684194
