19
Iteration:  3421charge 0 multiplicity 1
 O         0.444350         0.721554         0.109105
 C        -0.825902         0.963317         0.674610
 C        -1.229603         0.956571         2.149617
 C        -2.566239         1.325715         1.370649
 O        -3.819709         1.520536         1.786978
 C        -2.227873         0.221560         0.259769
 C        -2.590861         0.690072        -1.079995
 C        -2.158190         2.257898        -1.051314
 C        -1.594340         2.263944         0.440814
 H         1.163398         1.242383         0.565000
 H        -1.029842        -0.050714         2.560404
 H        -0.916893         1.766271         2.758990
 H        -4.465275         1.298534         1.188846
 H        -2.181102        -0.854443         0.258136
 H        -2.029829         0.372201        -1.966996
 H        -3.609538         0.689898        -1.485231
 H        -1.438239         2.519962        -1.795237
 H        -3.018036         2.947820        -1.100221
 H        -1.156549         3.213159         0.824290
