19
Iteration:  3606
 O         0.423503         0.622532         0.237324
 C        -0.860078         0.969870         0.669090
 C        -1.374294         0.923503         2.134818
 C        -2.535188         1.385655         1.325011
 O        -3.718105         1.409910         1.977001
 C        -2.069008         0.278209         0.200353
 C        -2.574938         0.774480        -1.223027
 C        -2.205314         2.270584        -1.081174
 C        -1.583839         2.286383         0.287039
 H         1.035522         1.344585         0.570672
 H        -1.430069        -0.073700         2.694314
 H        -1.029671         1.753230         2.749620
 H        -4.420268         1.609931         1.227903
 H        -2.326971        -0.737884         0.491781
 H        -2.026109         0.255031        -2.018495
 H        -3.656855         0.884901        -1.351505
 H        -1.472726         2.681543        -1.750998
 H        -3.075868         2.992569        -1.237424
 H        -1.445789         3.265003         0.767088
