19
Iteration:  1340
 O         0.604950         0.688684         0.161071
 C        -0.739697         0.925176         0.611351
 C        -1.298188         0.984443         2.168220
 C        -2.493760         1.319327         1.360954
 O        -3.822946         1.621676         1.706993
 C        -2.102423         0.224284         0.227642
 C        -2.657588         0.676789        -1.119365
 C        -2.310991         2.214746        -0.969546
 C        -1.711113         2.281277         0.451457
 H         0.802498         1.448827        -0.530000
 H        -1.321966        -0.052371         2.580518
 H        -0.811237         1.688099         2.759056
 H        -4.109263         0.941234         2.251205
 H        -2.361675        -0.849625         0.641231
 H        -2.199488         0.131409        -1.894140
 H        -3.731940         0.625627        -1.320425
 H        -1.552743         2.590372        -1.669202
 H        -3.110780         2.971622        -0.984668
 H        -1.344290         3.198205         0.817573
