19
Iteration:   136
 O         0.577150         0.654813         0.159629
 C        -0.811624         0.892047         0.642345
 C        -1.266799         0.890881         2.259308
 C        -2.439863         1.380887         1.456938
 O        -3.913829         1.441285         1.687420
 C        -2.167014         0.294772         0.241890
 C        -2.579533         0.790760        -1.188646
 C        -2.359160         2.313666        -1.017749
 C        -1.578051         2.251766         0.366250
 H         0.828209         1.396763        -0.378737
 H        -1.312946        -0.127466         2.600709
 H        -0.764184         1.608776         2.919016
 H        -4.098647         1.989305         2.550422
 H        -2.461298        -0.787906         0.478811
 H        -1.847732         0.329368        -1.872253
 H        -3.531609         0.471243        -1.620134
 H        -1.650780         2.874974        -1.767763
 H        -3.341618         2.827395        -0.895935
 H        -1.007604         3.262974         0.617645
