19
Iteration:  2559charge 0 multiplicity 1
 O         0.498126         0.718973         0.208641
 C        -0.805703         0.857382         0.682732
 C        -1.208003         1.067490         2.134845
 C        -2.532448         1.341165         1.282148
 O        -3.892202         1.522450         1.833681
 C        -2.174439         0.240720         0.268790
 C        -2.638879         0.689923        -1.143306
 C        -2.131735         2.284311        -1.033748
 C        -1.632427         2.238258         0.376108
 H         0.784619         1.238373        -0.640800
 H        -1.210479         0.256865         2.938945
 H        -0.757642         2.071569         2.362127
 H        -4.129752         0.577241         2.249594
 H        -2.358592        -0.796265         0.529429
 H        -2.234938         0.061095        -1.995478
 H        -3.718161         0.747962        -1.279698
 H        -1.389815         2.353020        -1.838738
 H        -2.955251         3.015944        -1.215014
 H        -1.241454         3.151173         0.718784
