19
Iteration:  4988charge 0 multiplicity 1
 O         0.576137         0.881257         0.173954
 C        -0.819686         0.974972         0.621400
 C        -1.264730         1.187346         2.213990
 C        -2.555283         1.352868         1.310816
 O        -3.840613         1.632649         1.715933
 C        -2.126030         0.153956         0.405201
 C        -2.578183         0.563475        -1.010970
 C        -2.307403         2.064311        -1.120415
 C        -1.660825         2.172792         0.352341
 H         0.976725        -0.051256        -0.107035
 H        -1.312981         0.306534         2.929015
 H        -0.789498         2.090224         2.677445
 H        -4.499634         1.244264         1.122503
 H        -1.927304        -0.872013         0.693493
 H        -1.855335        -0.062081        -1.651410
 H        -3.634066         0.349923        -1.125506
 H        -1.553086         2.346369        -1.896158
 H        -3.129023         2.797476        -1.388402
 H        -1.298219         3.175724         0.554523
