19
Iteration:  4711charge 0 multiplicity 1
 O         0.518607         0.848224         0.329119
 C        -0.786529         0.995988         0.647879
 C        -1.265580         1.096633         2.163413
 C        -2.518121         1.430218         1.310347
 O        -3.841656         1.560259         1.698803
 C        -2.109615         0.188032         0.393221
 C        -2.565450         0.526370        -1.090288
 C        -2.295507         2.039137        -1.156477
 C        -1.652741         2.270244         0.253737
 H         0.703770         0.419403        -0.622248
 H        -1.218430         0.118452         2.631667
 H        -0.706187         1.879901         2.750347
 H        -3.725798         1.678066         2.672074
 H        -2.240746        -0.772058         0.907489
 H        -2.051372        -0.080995        -1.816492
 H        -3.688307         0.342014        -1.149636
 H        -1.848370         2.484514        -1.987469
 H        -3.236162         2.656225        -1.218969
 H        -1.494281         3.356694         0.435982
