19
Iteration:  4354charge 0 multiplicity 1
 O         0.521646         0.828205         0.189015
 C        -0.805040         0.971512         0.722305
 C        -1.224699         1.168686         2.223981
 C        -2.520163         1.290782         1.285973
 O        -3.894105         1.749347         1.688705
 C        -2.054150         0.099177         0.310689
 C        -2.561883         0.566455        -1.052115
 C        -2.267222         2.061342        -1.056516
 C        -1.685989         2.188607         0.333171
 H         0.471817         0.459890        -0.705355
 H        -1.033510         0.428345         2.991645
 H        -0.786788         2.108142         2.569112
 H        -4.317351         0.930110         2.020992
 H        -2.064312        -0.886125         0.770100
 H        -1.973689         0.207158        -1.942544
 H        -3.627040         0.469498        -1.119693
 H        -1.715217         2.390112        -2.033728
 H        -3.239820         2.534302        -1.167338
 H        -1.322172         3.141016         0.676511
