19
Iteration:  2638charge 0 multiplicity 1
 O         0.549714         0.795343         0.236128
 C        -0.837458         0.930372         0.693795
 C        -1.241146         0.988682         2.149004
 C        -2.535802         1.286723         1.244300
 O        -3.740142         1.676545         1.738679
 C        -2.250658         0.152893         0.237176
 C        -2.548080         0.656520        -1.145397
 C        -2.289923         2.259398        -0.938505
 C        -1.629064         2.239753         0.375149
 H         0.681444         0.350239        -0.682264
 H        -1.297642         0.097068         2.853452
 H        -0.831090         1.834464         2.758141
 H        -4.115302         0.880645         2.353450
 H        -2.403615        -0.934106         0.492897
 H        -1.871422         0.267036        -1.894111
 H        -3.591706         0.493306        -1.596447
 H        -1.950498         2.678410        -1.875804
 H        -3.380603         2.599383        -0.906161
 H        -1.199152         3.193983         0.826284
