19
Iteration:  2249
 O         0.336130         0.844008         0.067714
 C        -0.876610         0.959879         0.720413
 C        -1.144165         1.002754         2.206304
 C        -2.528710         1.274720         1.354831
 O        -3.882116         1.600101         1.889891
 C        -2.163032         0.210605         0.183202
 C        -2.526714         0.719028        -1.183087
 C        -2.050953         2.183272        -1.073765
 C        -1.635090         2.226541         0.381222
 H         0.824764         0.016032         0.148497
 H        -1.199255         0.108454         2.904042
 H        -0.833611         1.823735         2.847052
 H        -4.487337         0.902769         1.835285
 H        -2.285235        -0.861741         0.386975
 H        -2.065663         0.051126        -1.916747
 H        -3.558168         0.720826        -1.241434
 H        -1.318702         2.387375        -1.851018
 H        -2.952896         2.831243        -1.035469
 H        -1.287735         3.177285         0.839906
