19
Iteration:  3009charge 0 multiplicity 1
 O         0.485027         0.707231         0.142186
 C        -0.744909         1.053464         0.690419
 C        -1.297215         0.918976         2.158990
 C        -2.552225         1.222980         1.340829
 O        -3.807174         1.645722         1.818742
 C        -2.101906         0.255638         0.282777
 C        -2.511580         0.660066        -1.179904
 C        -2.256415         2.216918        -0.978636
 C        -1.702920         2.266819         0.441825
 H         0.242771         0.656958        -0.818015
 H        -1.055856        -0.123819         2.477650
 H        -1.019531         1.632216         2.974257
 H        -4.248217         1.979746         1.004831
 H        -2.078960        -0.814807         0.541084
 H        -1.840083         0.240985        -1.995902
 H        -3.529206         0.328842        -1.398053
 H        -1.535477         2.547340        -1.824153
 H        -3.203368         2.833410        -1.161509
 H        -1.566533         3.107973         1.072023
