19
Iteration:   570charge 0 multiplicity 1
 O         0.480362         0.702645         0.175208
 C        -0.774714         1.030588         0.629673
 C        -1.222384         0.979913         2.098053
 C        -2.482530         1.271255         1.322448
 O        -3.805461         1.458893         1.650509
 C        -2.126380         0.172060         0.240156
 C        -2.651125         0.728116        -1.027603
 C        -2.252855         2.271003        -0.939817
 C        -1.696991         2.344291         0.454181
 H         0.551678        -0.089062        -0.258939
 H        -1.200591         0.058356         2.674925
 H        -0.862986         1.793037         2.702493
 H        -3.807421         2.222863         2.226728
 H        -2.136774        -0.914186         0.450936
 H        -2.347917         0.258443        -1.999957
 H        -3.740696         0.621290        -1.028786
 H        -1.336731         2.597195        -1.603381
 H        -2.993922         3.097436        -1.274613
 H        -1.437876         3.370456         0.881318
