19
Iteration:  2972charge 0 multiplicity 1
 O         0.500863         0.765448         0.301992
 C        -0.812641         0.940038         0.684588
 C        -1.219260         0.966590         2.062686
 C        -2.530268         1.320563         1.339427
 O        -3.844830         1.484593         1.805634
 C        -2.154858         0.250326         0.261656
 C        -2.609907         0.654426        -1.144941
 C        -2.284316         2.262797        -1.070485
 C        -1.605478         2.215378         0.357838
 H         0.731318         0.774876        -0.605379
 H        -1.173081         0.003661         2.592236
 H        -0.860030         1.909549         2.573656
 H        -3.901674         2.386465         2.348548
 H        -2.301655        -0.842329         0.463402
 H        -1.991465         0.370971        -1.987466
 H        -3.676024         0.540405        -1.433620
 H        -1.450971         2.538999        -1.784115
 H        -3.088225         2.967689        -1.114577
 H        -1.185740         3.190300         0.655033
