19
Iteration:  2363charge 0 multiplicity 1
 O         0.430867         0.881752         0.157199
 C        -0.880560         0.910432         0.644278
 C        -1.316313         0.802930         2.072936
 C        -2.503707         1.367915         1.286628
 O        -3.765812         1.712789         1.780829
 C        -2.031440         0.151136         0.206536
 C        -2.560109         0.677513        -1.059183
 C        -2.226359         2.200603        -0.981934
 C        -1.687786         2.314822         0.408033
 H         0.896374         0.080508         0.698397
 H        -1.243488        -0.140942         2.516100
 H        -0.836955         1.477959         2.777842
 H        -4.145513         0.828295         2.081171
 H        -2.206530        -0.859473         0.595422
 H        -2.181530         0.255309        -1.951527
 H        -3.716586         0.549144        -1.010876
 H        -1.455013         2.264610        -1.791135
 H        -3.020988         2.861975        -1.275744
 H        -1.255116         3.256519         0.729112
