19
Iteration:    36
 O         0.385537         0.780498         0.095065
 C        -0.823677         0.931128         0.721282
 C        -1.216617         0.854538         2.202994
 C        -2.558511         1.277861         1.311016
 O        -3.821687         1.431224         1.834747
 C        -2.151874         0.261178         0.173328
 C        -2.561430         0.818245        -1.190972
 C        -2.088007         2.300710        -1.061794
 C        -1.730067         2.247071         0.453155
 H         1.093196         0.538018         0.570241
 H        -1.112359        -0.131013         2.559909
 H        -0.932780         1.652808         2.936195
 H        -3.942979         2.332174         1.896889
 H        -2.399185        -0.757388         0.449090
 H        -2.309432         0.233039        -2.063661
 H        -3.634479         0.832545        -1.168976
 H        -1.118556         2.523719        -1.665779
 H        -2.829101         3.089676        -1.332090
 H        -1.279941         3.174658         0.939429
