19
Iteration:  1246charge 0 multiplicity 1
 O         0.440784         0.731566         0.142026
 C        -0.801664         1.044370         0.661948
 C        -1.272367         0.867587         2.242237
 C        -2.459926         1.299636         1.325435
 O        -3.716973         1.573173         1.723381
 C        -2.103811         0.317359         0.204688
 C        -2.666372         0.739519        -1.120836
 C        -2.271077         2.204525        -1.032045
 C        -1.666302         2.325628         0.405445
 H         0.604929        -0.099134         0.523052
 H        -1.267665        -0.138200         2.499663
 H        -0.863770         1.654040         2.972163
 H        -4.140003         0.767816         2.253931
 H        -2.240700        -0.686311         0.477327
 H        -2.045398         0.240557        -1.980541
 H        -3.703565         0.381408        -1.350119
 H        -1.440118         2.445217        -1.727316
 H        -3.141824         2.811708        -1.329982
 H        -1.439901         3.348996         0.877570
