19
Iteration:  3158charge 0 multiplicity 1
 O         0.476109         0.656314         0.228187
 C        -0.864756         1.070164         0.576373
 C        -1.238140         0.900405         2.170601
 C        -2.528699         1.203251         1.284738
 O        -3.822244         1.568950         1.729772
 C        -2.148209         0.242135         0.241185
 C        -2.482859         0.662169        -1.095517
 C        -2.235328         2.286886        -1.011913
 C        -1.738780         2.316281         0.450293
 H         0.582725         0.978745        -0.640955
 H        -1.219664        -0.137265         2.491170
 H        -0.928697         1.535013         3.021713
 H        -3.525000         2.332615         2.399098
 H        -2.035917        -0.841480         0.331150
 H        -1.964221         0.034734        -1.822679
 H        -3.561550         0.579390        -1.379390
 H        -1.384734         2.725483        -1.497324
 H        -3.150612         2.842966        -1.150534
 H        -1.436646         3.335578         0.841762
