19
Iteration:  2454charge 0 multiplicity 1
 O         0.529312         0.752140         0.145999
 C        -0.767841         0.992677         0.652032
 C        -1.266029         0.898428         2.173317
 C        -2.569293         1.297291         1.391262
 O        -3.872572         1.696199         1.760010
 C        -2.042703         0.238315         0.246913
 C        -2.577756         0.681050        -1.173711
 C        -2.263056         2.216358        -1.041851
 C        -1.702054         2.253289         0.424888
 H         0.682602        -0.157571        -0.220887
 H        -1.123658        -0.018262         2.688890
 H        -0.769207         1.604144         2.798214
 H        -4.235878         1.044368         2.298188
 H        -2.022727        -0.870079         0.405565
 H        -1.978981         0.220663        -2.010252
 H        -3.684217         0.340191        -1.284198
 H        -1.578258         2.685413        -1.736141
 H        -3.136086         2.920077        -0.987865
 H        -1.395987         3.313775         0.786842
