19
Iteration:   230
 O         0.409841         0.843966         0.172682
 C        -0.838665         0.894972         0.632641
 C        -1.217393         0.911539         2.109514
 C        -2.505910         1.364501         1.290709
 O        -3.845232         1.398811         1.764593
 C        -2.179326         0.247375         0.243828
 C        -2.620015         0.761118        -1.049501
 C        -2.184118         2.270505        -1.021610
 C        -1.582234         2.297747         0.417965
 H         0.838633        -0.066962         0.252474
 H        -1.325482        -0.058144         2.597086
 H        -0.603718         1.618811         2.740759
 H        -4.001770         2.286557         2.071252
 H        -2.432312        -0.723771         0.536338
 H        -1.914780         0.252969        -1.749585
 H        -3.587010         0.454268        -1.421588
 H        -1.406252         2.365756        -1.789398
 H        -2.965552         3.036420        -1.130057
 H        -1.109454         3.149882         0.722285
