19
Iteration:  1446charge 0 multiplicity 1
 O         0.366123         0.717196        -0.033835
 C        -0.885334         0.928374         0.690656
 C        -1.194939         1.043907         2.195499
 C        -2.549047         1.255097         1.316304
 O        -3.795652         1.650478         1.885709
 C        -2.205316         0.195714         0.237299
 C        -2.380981         0.613476        -1.223643
 C        -2.189743         2.265170        -1.045576
 C        -1.756797         2.219235         0.488707
 H         1.141841         0.896356         0.644917
 H        -1.114963         0.335840         3.087452
 H        -0.768361         2.133079         2.569522
 H        -4.060569         1.061466         2.509899
 H        -2.458145        -0.789475         0.407721
 H        -1.537888         0.170173        -1.896249
 H        -3.403216         0.513361        -1.619077
 H        -1.401132         2.744316        -1.652702
 H        -3.142041         2.823980        -1.217695
 H        -1.445194         3.146541         0.925976
