19
Iteration:  1963
 O         0.449095         0.815885         0.123698
 C        -0.820415         1.022462         0.601224
 C        -1.327529         0.895945         2.104816
 C        -2.523126         1.347481         1.349449
 O        -3.834107         1.704227         1.863199
 C        -2.143994         0.169275         0.234723
 C        -2.457563         0.608370        -1.155130
 C        -2.234358         2.189248        -0.990097
 C        -1.626325         2.311347         0.368225
 H         0.762261        -0.053881         0.340492
 H        -1.438334        -0.106100         2.458773
 H        -0.780047         1.404936         2.883620
 H        -4.155725         0.971146         2.501174
 H        -2.103549        -0.852724         0.560286
 H        -1.788060         0.111479        -1.895649
 H        -3.409087         0.283037        -1.560917
 H        -1.798947         2.686694        -1.791136
 H        -3.248035         2.645512        -0.993364
 H        -1.280522         3.249883         0.853399
