19
Iteration:   932
 O         0.442648         0.839210         0.058763
 C        -0.804858         0.977623         0.655129
 C        -1.282133         0.822900         2.153922
 C        -2.495639         1.324350         1.325872
 O        -3.805913         1.603939         1.732867
 C        -2.190709         0.248154         0.223333
 C        -2.525478         0.731970        -1.109900
 C        -2.230466         2.193546        -0.962072
 C        -1.630149         2.318710         0.469766
 H         0.734794        -0.106413        -0.053645
 H        -1.649966        -0.283642         2.441574
 H        -0.892429         1.363151         3.037255
 H        -3.884122         1.184588         2.697729
 H        -2.356515        -0.843339         0.403917
 H        -1.865339         0.292077        -1.874863
 H        -3.583645         0.532195        -1.305694
 H        -1.587945         2.553467        -1.756186
 H        -3.120981         2.738848        -0.874441
 H        -1.067854         3.259387         0.846861
