19
Iteration:  4882
 O         0.472327         0.766434         0.166985
 C        -0.744242         1.012319         0.728539
 C        -1.260295         1.058283         2.167762
 C        -2.544379         1.387515         1.293116
 O        -3.861443         1.610998         1.641596
 C        -2.074577         0.185927         0.421976
 C        -2.510579         0.493042        -1.049736
 C        -2.262748         2.022968        -1.129727
 C        -1.728704         2.308287         0.369095
 H         0.652060         1.436965        -0.529055
 H        -1.325951         0.286503         2.887465
 H        -0.842414         1.978403         2.662282
 H        -3.810789         2.294366         2.352265
 H        -2.162489        -0.834955         0.836857
 H        -1.962583        -0.063012        -1.809848
 H        -3.511706         0.179867        -1.278823
 H        -1.659496         2.404926        -1.978681
 H        -3.186058         2.539807        -1.048458
 H        -1.458266         3.285024         0.663542
