19
Iteration:  1570
 O         0.472559         0.654133         0.073310
 C        -0.762739         1.030515         0.647664
 C        -1.261991         0.880664         2.129109
 C        -2.519717         1.368228         1.335203
 O        -3.847449         1.630269         1.767691
 C        -2.122002         0.280216         0.301603
 C        -2.524782         0.661963        -1.080508
 C        -2.230598         2.165844        -1.014339
 C        -1.708827         2.345089         0.412177
 H         1.277272         1.296937         0.156451
 H        -1.372215        -0.229678         2.455125
 H        -0.844224         1.548200         2.811688
 H        -4.239837         0.846155         2.227421
 H        -2.187965        -0.779864         0.623445
 H        -2.209409         0.056724        -1.915983
 H        -3.627911         0.523150        -1.105464
 H        -1.479173         2.549762        -1.757699
 H        -3.231534         2.704197        -1.109689
 H        -1.517356         3.321048         0.693119
