19
Iteration:  2973charge 0 multiplicity 1
 O         0.492797         0.763355         0.298387
 C        -0.815074         0.934186         0.688366
 C        -1.232675         0.965791         2.059103
 C        -2.522792         1.323504         1.338948
 O        -3.838115         1.490122         1.808579
 C        -2.136941         0.256927         0.263904
 C        -2.603272         0.651768        -1.144751
 C        -2.287917         2.255671        -1.065005
 C        -1.613086         2.222201         0.361840
 H         0.733522         0.775435        -0.640827
 H        -1.182224        -0.016065         2.571174
 H        -0.850077         1.891976         2.620817
 H        -3.911492         2.376494         2.289415
 H        -2.302071        -0.836079         0.444933
 H        -1.989533         0.391264        -2.019334
 H        -3.666723         0.533074        -1.407796
 H        -1.443534         2.534795        -1.822650
 H        -3.114820         2.972736        -1.156616
 H        -1.208382         3.163264         0.700415
