19
Iteration:  3130charge 0 multiplicity 1
 O         0.527167         0.817123         0.202390
 C        -0.837320         0.864047         0.662938
 C        -1.225090         0.873020         2.207868
 C        -2.536285         1.347597         1.249151
 O        -3.885173         1.607139         1.673469
 C        -2.159103         0.209589         0.204810
 C        -2.566934         0.728955        -1.082284
 C        -2.229395         2.156267        -0.950932
 C        -1.577098         2.257407         0.428417
 H         0.333181         1.103216        -0.662362
 H        -1.241695        -0.156114         2.676677
 H        -0.852602         1.712505         2.810202
 H        -3.891863         1.651893         2.703721
 H        -2.337209        -0.864352         0.281325
 H        -2.077851         0.191276        -1.927545
 H        -3.642715         0.717005        -1.201803
 H        -1.539964         2.675940        -1.700200
 H        -3.122722         2.829165        -0.940459
 H        -1.320155         3.278873         0.615922
