19
Iteration:  3590charge 0 multiplicity 1
 O         0.488450         0.623029         0.223101
 C        -0.755172         0.970988         0.641996
 C        -1.307460         1.012574         2.163027
 C        -2.539134         1.341452         1.257545
 O        -3.849258         1.361860         1.962605
 C        -2.276947         0.284263         0.181532
 C        -2.593897         0.762284        -1.180974
 C        -2.180208         2.289380        -1.070338
 C        -1.539823         2.328356         0.373081
 H         1.028343         1.389216         0.312854
 H        -1.432980         0.020085         2.510291
 H        -0.825431         1.692888         2.909200
 H        -4.527685         1.805436         1.447036
 H        -2.293409        -0.770571         0.500939
 H        -1.888803         0.377386        -1.933114
 H        -3.576430         0.357745        -1.441384
 H        -1.553158         2.553611        -1.979266
 H        -2.991829         2.966974        -0.994640
 H        -0.855865         3.138337         0.624723
