19
Iteration:  2572charge 0 multiplicity 1
 O         0.525298         0.746050         0.195168
 C        -0.858007         0.968612         0.547308
 C        -1.294143         1.053928         2.110850
 C        -2.518885         1.340683         1.330284
 O        -3.832971         1.538568         1.790749
 C        -2.184831         0.170090         0.252257
 C        -2.653986         0.738806        -1.049652
 C        -2.132636         2.135268        -0.999962
 C        -1.627933         2.299826         0.397674
 H         0.620317         1.150970        -0.631759
 H        -1.376274         0.088711         2.691401
 H        -0.805240         1.770244         2.813487
 H        -4.112960         0.773483         2.172476
 H        -2.267651        -0.900157         0.555310
 H        -2.110192         0.290748        -1.812299
 H        -3.749005         0.551238        -1.198120
 H        -1.197829         2.269305        -1.558163
 H        -2.789894         2.980584        -1.367729
 H        -1.045124         3.159615         0.807380
