19
Iteration:  1737charge 0 multiplicity 1
 O         0.444517         0.821620         0.109317
 C        -0.800545         0.985671         0.665982
 C        -1.236158         0.961874         2.152708
 C        -2.518652         1.391537         1.378206
 O        -3.855131         1.593865         1.803489
 C        -2.105910         0.242798         0.332476
 C        -2.566633         0.645982        -1.123580
 C        -2.228185         2.212041        -1.089441
 C        -1.648156         2.248959         0.372712
 H         0.497515        -0.188364        -0.014842
 H        -1.321418        -0.103981         2.512746
 H        -0.796453         1.571916         3.011273
 H        -4.196774         0.736805         2.290959
 H        -2.213584        -0.879565         0.544610
 H        -1.959580         0.170647        -1.914413
 H        -3.637510         0.456323        -1.409769
 H        -1.289881         2.320624        -1.772518
 H        -3.021014         2.948253        -1.354659
 H        -1.241384         3.243460         0.543881
