19
Iteration:  1053
 O         0.533238         0.841873         0.103706
 C        -0.806608         0.859124         0.671223
 C        -1.238857         0.927865         2.175831
 C        -2.500173         1.218159         1.321486
 O        -3.782773         1.644432         1.677928
 C        -2.130430         0.203416         0.188936
 C        -2.742035         0.868435        -1.092495
 C        -2.231838         2.246060        -0.955197
 C        -1.590999         2.130193         0.435521
 H         0.964390         0.268180         0.789265
 H        -1.084721         0.115071         2.987636
 H        -0.898041         1.761326         2.738406
 H        -4.461658         1.058514         1.682081
 H        -2.323226        -0.890156         0.357298
 H        -2.481487         0.348026        -1.992955
 H        -3.809337         0.748317        -1.024647
 H        -1.559530         2.544339        -1.744506
 H        -3.074973         2.894280        -0.884579
 H        -1.379411         3.111616         0.941240
