19
Iteration:  1805charge 0 multiplicity 1
 O         0.402450         0.802122         0.113252
 C        -0.806671         1.085202         0.662579
 C        -1.245938         0.915486         2.093082
 C        -2.519618         1.332179         1.333500
 O        -3.809116         1.664955         1.838434
 C        -2.208864         0.278000         0.248789
 C        -2.444039         0.618482        -1.216486
 C        -2.235628         2.118229        -0.992441
 C        -1.625400         2.247758         0.389574
 H         0.817443         0.108686         0.570375
 H        -1.283321        -0.148941         2.399619
 H        -0.901811         1.486615         3.050613
 H        -4.054365         1.095661         2.466265
 H        -2.311038        -0.822370         0.673083
 H        -1.998516        -0.071963        -1.953767
 H        -3.505321         0.426407        -1.447779
 H        -1.703834         2.724140        -1.812507
 H        -3.250711         2.517077        -0.887893
 H        -1.266712         3.256328         0.793393
