19
Iteration:  4643
 O         0.527589         0.788477         0.224181
 C        -0.790182         1.014472         0.613533
 C        -1.284890         1.147200         2.190623
 C        -2.494682         1.373675         1.380167
 O        -3.885364         1.476154         1.732427
 C        -2.129558         0.278816         0.358769
 C        -2.574264         0.533829        -1.061885
 C        -2.242750         1.982810        -1.063041
 C        -1.633426         2.302499         0.251801
 H         0.640414         0.971284        -0.645875
 H        -1.322073         0.216656         2.729960
 H        -0.931652         2.063959         2.695952
 H        -4.109842         2.439638         1.862653
 H        -2.231827        -0.680672         0.919755
 H        -1.980609        -0.081632        -1.790855
 H        -3.657310         0.242092        -1.354053
 H        -1.491547         2.200035        -1.842445
 H        -3.019999         2.680153        -1.375794
 H        -1.372013         3.281223         0.770254
