19
Iteration:  4844charge 0 multiplicity 1
 O         0.484848         0.763824         0.227301
 C        -0.840143         0.999482         0.710570
 C        -1.214373         1.134876         2.161777
 C        -2.496130         1.307869         1.277089
 O        -3.758421         1.589275         1.759401
 C        -2.052914         0.168913         0.342940
 C        -2.597688         0.548503        -1.045886
 C        -2.285333         2.084643        -1.185240
 C        -1.720926         2.234482         0.285138
 H         1.090892         1.362826         0.886808
 H        -1.230750         0.221724         2.870225
 H        -0.965222         2.072665         2.649836
 H        -4.331794         2.235712         1.276209
 H        -2.232993        -0.781742         0.849238
 H        -2.012149         0.011437        -1.811100
 H        -3.693499         0.341624        -0.999964
 H        -1.712209         2.299291        -2.125584
 H        -3.309707         2.698918        -1.315681
 H        -1.727413         3.307437         0.684433
