19
Iteration:  1533
 O         0.525665         0.684624         0.193914
 C        -0.811760         0.937251         0.674246
 C        -1.209666         1.048597         2.127913
 C        -2.494259         1.258550         1.324861
 O        -3.806041         1.629572         1.611138
 C        -2.076220         0.164128         0.202053
 C        -2.720128         0.748501        -1.088056
 C        -2.258262         2.205041        -0.921795
 C        -1.642008         2.195189         0.407444
 H         0.896620         1.600652         0.008912
 H        -1.084339         0.281891         2.858968
 H        -0.682944         1.904665         2.698179
 H        -4.298550         0.805683         2.057473
 H        -2.342478        -0.803093         0.482498
 H        -2.493214         0.155228        -1.991890
 H        -3.733380         0.921603        -0.794269
 H        -1.785368         2.722264        -1.724454
 H        -3.209798         2.710491        -0.766959
 H        -1.226251         3.152749         0.871155
