19
Iteration:  2399
 O         0.451909         0.821484         0.082066
 C        -0.783990         0.966172         0.651247
 C        -1.192213         1.018771         2.211138
 C        -2.560118         1.271132         1.353034
 O        -3.897605         1.550598         1.842640
 C        -2.239325         0.162270         0.261394
 C        -2.615865         0.814513        -1.146715
 C        -2.107234         2.188971        -1.075702
 C        -1.612264         2.234703         0.394046
 H         1.031819         0.077395         0.609981
 H        -1.045277         0.186714         2.891140
 H        -0.957279         1.998911         2.569649
 H        -4.176525         0.632895         2.163810
 H        -2.493049        -0.932262         0.274792
 H        -2.179411         0.325087        -2.089682
 H        -3.775041         0.591260        -1.344235
 H        -1.190769         2.141531        -1.667859
 H        -2.652800         3.094942        -1.479025
 H        -1.104208         3.233841         0.803850
