19
Iteration:  4865charge 0 multiplicity 1
 O         0.530101         0.746300         0.201571
 C        -0.817630         1.065425         0.651830
 C        -1.268787         1.125714         2.193825
 C        -2.501242         1.404230         1.340480
 O        -3.885020         1.590098         1.719594
 C        -2.073697         0.226928         0.307315
 C        -2.555792         0.457366        -1.076199
 C        -2.308109         2.006486        -1.017863
 C        -1.682076         2.239095         0.281120
 H         0.966020         1.561803        -0.013222
 H        -1.133270         0.051550         2.544360
 H        -0.879058         1.798071         2.944787
 H        -4.029069         2.565650         1.674428
 H        -2.087160        -0.823677         0.655384
 H        -1.915270        -0.058598        -1.810519
 H        -3.684979         0.265084        -1.149785
 H        -1.520577         2.241905        -1.741599
 H        -3.247816         2.583769        -1.327059
 H        -1.304503         3.295615         0.629780
