19
Iteration:  4951
 O         0.494578         0.802654         0.349324
 C        -0.823857         1.069492         0.653013
 C        -1.280626         1.117655         2.169387
 C        -2.498868         1.338740         1.299778
 O        -3.729695         1.638386         1.823739
 C        -2.063033         0.249107         0.320178
 C        -2.586990         0.541349        -1.108485
 C        -2.301428         2.041164        -1.198535
 C        -1.749644         2.296999         0.250939
 H         0.367471        -0.115062        -0.185264
 H        -1.279864         0.208958         2.774189
 H        -0.864994         1.959204         2.678116
 H        -4.228205         0.787685         1.902431
 H        -1.791099        -0.743194         0.783903
 H        -2.030812        -0.103663        -1.768562
 H        -3.603282         0.256442        -1.550667
 H        -1.510577         2.230914        -1.859484
 H        -3.209508         2.453563        -1.465286
 H        -1.429261         3.345007         0.604813
