19
Iteration:  4678
 O         0.549564         0.689148         0.442810
 C        -0.827167         1.014631         0.578798
 C        -1.269651         1.249121         2.120807
 C        -2.495613         1.271742         1.310070
 O        -3.783258         1.498247         1.782973
 C        -2.025189         0.198779         0.343635
 C        -2.618702         0.607061        -1.117295
 C        -2.321591         2.118679        -1.197650
 C        -1.750307         2.264403         0.241248
 H         0.847027         0.871804        -0.388098
 H        -1.117823         0.431182         2.826417
 H        -0.892487         2.166625         2.670153
 H        -3.753478         2.169055         2.520316
 H        -2.144088        -0.851674         0.636552
 H        -2.163869        -0.015039        -1.856769
 H        -3.739588         0.525218        -1.125823
 H        -1.574443         2.192416        -1.931790
 H        -3.287650         2.639297        -1.467365
 H        -1.731336         3.344137         0.464700
