19
Iteration:  2448
 O         0.523277         0.739811         0.128324
 C        -0.759103         1.011993         0.682461
 C        -1.263174         0.927438         2.212354
 C        -2.557479         1.281783         1.384346
 O        -3.869225         1.664247         1.771320
 C        -2.035632         0.281630         0.219147
 C        -2.616199         0.672841        -1.167503
 C        -2.266913         2.243125        -1.060635
 C        -1.685326         2.263411         0.436931
 H         0.539845        -0.148342        -0.078602
 H        -1.198123        -0.216527         2.489973
 H        -0.799460         1.650102         2.974994
 H        -4.288582         0.983532         2.335098
 H        -2.007746        -0.788391         0.430845
 H        -2.011773         0.151000        -1.949074
 H        -3.574575         0.330627        -1.394227
 H        -1.550421         2.466307        -1.922344
 H        -3.074412         2.946619        -1.264702
 H        -1.292928         3.161719         0.809283
