19
Iteration:  4328
 O         0.492597         0.809055         0.195364
 C        -0.847350         1.059368         0.652900
 C        -1.224078         1.036985         2.174725
 C        -2.477841         1.397036         1.339608
 O        -3.826631         1.630076         1.617826
 C        -2.178534         0.197100         0.376752
 C        -2.511610         0.460433        -1.040414
 C        -2.234851         2.079696        -1.066732
 C        -1.771984         2.261477         0.360340
 H         0.551060         0.816949        -0.735570
 H        -1.099744         0.098097         2.713856
 H        -0.771248         1.826422         2.836258
 H        -3.902731         1.759725         2.576616
 H        -2.137989        -0.760346         0.920122
 H        -1.797206         0.059753        -1.739080
 H        -3.570386         0.293590        -1.301322
 H        -1.413060         2.317249        -1.846373
 H        -3.206635         2.600306        -1.352501
 H        -1.355527         3.233721         0.658193
