19
Iteration:   201
 O         0.430452         0.799427         0.051742
 C        -0.779307         0.967593         0.675744
 C        -1.244572         0.917601         2.220826
 C        -2.541045         1.293994         1.334383
 O        -3.855499         1.442340         1.875132
 C        -2.200644         0.232005         0.167281
 C        -2.601332         0.750576        -1.189093
 C        -2.074229         2.224217        -1.066231
 C        -1.696568         2.284560         0.453419
 H         1.072994         0.383595         0.758814
 H        -1.328608        -0.044049         2.722808
 H        -0.788346         1.685699         2.866781
 H        -3.898581         2.438138         2.247399
 H        -2.357185        -0.871700         0.387195
 H        -2.066922         0.143659        -1.947856
 H        -3.652298         0.675440        -1.482488
 H        -1.279627         2.480980        -1.732047
 H        -2.820552         2.988452        -1.286810
 H        -1.433171         3.371654         0.785211
