19
Iteration:   681charge 0 multiplicity 1
 O         0.409791         0.742631        -0.034810
 C        -0.811436         0.909388         0.669363
 C        -1.212202         0.880099         2.142665
 C        -2.540187         1.341149         1.306619
 O        -3.931471         1.473683         1.764861
 C        -2.126686         0.206166         0.315058
 C        -2.582026         0.741734        -1.056507
 C        -2.130837         2.286776        -0.966205
 C        -1.604750         2.294911         0.471736
 H         1.134254         1.152499         0.594439
 H        -1.189146        -0.136719         2.581618
 H        -0.666912         1.599087         2.698455
 H        -4.140984         2.445530         1.695706
 H        -2.421181        -0.898133         0.489044
 H        -2.085592         0.218535        -1.917339
 H        -3.712886         0.741270        -1.098779
 H        -1.298033         2.554985        -1.713707
 H        -3.098272         2.889666        -1.096674
 H        -1.083649         3.212165         0.797693
