19
Iteration:  2303charge 0 multiplicity 1
 O         0.461019         0.712058         0.192777
 C        -0.865419         0.967804         0.628226
 C        -1.219286         0.975512         2.199275
 C        -2.517719         1.335279         1.375761
 O        -3.822136         1.647167         1.750794
 C        -2.039965         0.207933         0.213247
 C        -2.492939         0.728912        -1.205515
 C        -2.406004         2.275985        -1.019132
 C        -1.645640         2.204433         0.392011
 H         0.531192        -0.238878         0.087481
 H        -1.152126        -0.077512         2.705060
 H        -0.781114         1.842781         2.713132
 H        -4.078480         1.040504         2.373978
 H        -1.864869        -0.823875         0.574563
 H        -1.858664         0.311550        -2.022732
 H        -3.461048         0.377091        -1.435980
 H        -1.766029         2.717966        -1.782423
 H        -3.377420         2.867341        -0.944386
 H        -1.171340         3.068836         0.933692
