19
Iteration:  1402
 O         0.576826         0.651239         0.049784
 C        -0.737114         0.970494         0.751721
 C        -1.289325         0.898609         2.184461
 C        -2.493581         1.328765         1.292335
 O        -3.822395         1.605150         1.777716
 C        -2.074041         0.271510         0.269366
 C        -2.685070         0.691837        -1.121424
 C        -2.288104         2.215265        -1.036233
 C        -1.717360         2.401908         0.382737
 H         1.368128         1.082739         0.591835
 H        -1.293101        -0.161337         2.553375
 H        -0.851939         1.700632         3.002800
 H        -4.234564         0.851143         1.980688
 H        -2.269839        -0.697831         0.609166
 H        -2.192303        -0.042842        -1.885857
 H        -3.761154         0.401625        -1.095251
 H        -1.632339         2.379867        -1.924365
 H        -3.233623         2.791718        -1.210189
 H        -1.550010         3.428999         0.765196
