19
Iteration:   970charge 0 multiplicity 1
 O         0.459305         0.733049         0.016505
 C        -0.815431         0.914741         0.663404
 C        -1.232233         1.015165         2.075174
 C        -2.592952         1.221880         1.346993
 O        -3.843528         1.645875         1.891835
 C        -2.181150         0.217282         0.162132
 C        -2.425850         0.790200        -1.177466
 C        -2.172843         2.226528        -0.897709
 C        -1.707704         2.235205         0.487966
 H         0.477840        -0.166309         0.047071
 H        -1.262776         0.137656         2.627910
 H        -1.021531         1.948718         2.655347
 H        -4.206282         1.065587         2.669309
 H        -2.141260        -0.894790         0.178325
 H        -1.676639         0.298117        -1.847291
 H        -3.455173         0.609153        -1.683207
 H        -1.385498         2.729373        -1.512453
 H        -3.131257         2.787444        -1.205337
 H        -1.511325         3.150169         0.918920
