19
Iteration:  4843
 O         0.484489         0.764229         0.228390
 C        -0.841402         0.995891         0.705106
 C        -1.218577         1.143467         2.165670
 C        -2.497412         1.313832         1.270734
 O        -3.753181         1.587722         1.765008
 C        -2.056293         0.173813         0.331806
 C        -2.591915         0.546129        -1.046734
 C        -2.285250         2.085400        -1.179401
 C        -1.719033         2.230685         0.280601
 H         1.078837         1.329624         0.916679
 H        -1.193249         0.247702         2.859631
 H        -0.971317         2.074720         2.667906
 H        -4.324329         2.198723         1.250924
 H        -2.254535        -0.778702         0.834953
 H        -2.038517        -0.001148        -1.814360
 H        -3.715995         0.344859        -0.986143
 H        -1.703381         2.278315        -2.081352
 H        -3.291391         2.668212        -1.295708
 H        -1.760133         3.301306         0.727312
