19
Iteration:  2104
 O         0.342651         0.855250         0.084747
 C        -0.877553         0.982380         0.717695
 C        -1.245459         0.922750         2.181640
 C        -2.561030         1.307375         1.286010
 O        -3.763665         1.672253         1.838815
 C        -2.139285         0.229619         0.248458
 C        -2.462154         0.626736        -1.220444
 C        -2.165383         2.180616        -1.048486
 C        -1.666627         2.251164         0.465036
 H         0.603195        -0.167310         0.181823
 H        -1.213706        -0.048747         2.772381
 H        -0.733278         1.738845         2.801446
 H        -4.049610         0.880815         2.480726
 H        -2.179037        -0.842430         0.444378
 H        -1.846139         0.200233        -2.006116
 H        -3.437197         0.385827        -1.516858
 H        -1.575727         2.615249        -1.804746
 H        -3.116113         2.748977        -1.246886
 H        -1.309484         3.229422         0.865268
