19
Iteration:  4701charge 0 multiplicity 1
 O         0.570514         0.782221         0.404905
 C        -0.774655         1.061006         0.684886
 C        -1.193366         1.173045         2.112389
 C        -2.490997         1.379438         1.197782
 O        -3.878857         1.535108         1.775089
 C        -2.115968         0.230843         0.298191
 C        -2.644725         0.446283        -1.128699
 C        -2.294779         2.087908        -1.086207
 C        -1.650803         2.290715         0.230420
 H         0.523985         0.543513        -0.644268
 H        -1.417517         0.241177         2.650938
 H        -0.772225         1.911825         2.838149
 H        -3.767988         1.754254         2.708203
 H        -2.313647        -0.748931         0.717341
 H        -2.109557        -0.117835        -1.851753
 H        -3.728758         0.303357        -1.207917
 H        -1.671497         2.249369        -1.912983
 H        -3.290120         2.620352        -1.124888
 H        -1.528619         3.310943         0.554975
