19
Iteration:  2413
 O         0.434205         0.803695         0.109134
 C        -0.893534         0.882564         0.657622
 C        -1.230276         1.085943         2.099174
 C        -2.528954         1.342938         1.313768
 O        -3.856498         1.492797         1.834539
 C        -2.155324         0.254319         0.234656
 C        -2.629711         0.721083        -1.114357
 C        -2.018458         2.255914        -1.045172
 C        -1.666635         2.229114         0.413375
 H         0.797117         0.017530         0.460122
 H        -1.285464         0.088608         2.724621
 H        -0.644097         1.874349         2.634390
 H        -4.174868         0.605011         2.219817
 H        -2.287835        -0.767757         0.617875
 H        -2.210818         0.021677        -1.928125
 H        -3.693074         0.867342        -1.145276
 H        -1.162568         2.430208        -1.731343
 H        -2.891018         2.903594        -1.245294
 H        -1.219781         3.135163         0.889591
