19
Iteration:  4706charge 0 multiplicity 1
 O         0.539097         0.816716         0.364340
 C        -0.770942         1.021303         0.653456
 C        -1.217915         1.148298         2.142708
 C        -2.502680         1.402586         1.245002
 O        -3.872849         1.545969         1.741146
 C        -2.108684         0.209148         0.351706
 C        -2.617987         0.471653        -1.130280
 C        -2.296725         2.076290        -1.093846
 C        -1.630650         2.274513         0.246775
 H         0.578627         0.523501        -0.485586
 H        -1.386397         0.153990         2.637457
 H        -0.709624         1.827567         2.814844
 H        -3.705717         1.704834         2.687787
 H        -2.337963        -0.761110         0.850163
 H        -1.981399        -0.147109        -1.838439
 H        -3.719844         0.396217        -1.110062
 H        -1.775088         2.413183        -2.107822
 H        -3.219731         2.625786        -1.225408
 H        -1.650361         3.391080         0.415414
