19
Iteration:  3482
 O         0.453658         0.627993         0.210182
 C        -0.806361         1.052280         0.605949
 C        -1.323969         1.011106         2.129148
 C        -2.520313         1.290606         1.259121
 O        -3.752642         1.509427         1.971429
 C        -2.149155         0.151492         0.213084
 C        -2.534509         0.780167        -1.218455
 C        -2.236709         2.285810        -1.068823
 C        -1.709100         2.262667         0.401523
 H         1.081657         0.416735         0.981462
 H        -1.095677         0.036209         2.517200
 H        -0.985768         1.833620         2.845351
 H        -4.306475         1.776176         1.175265
 H        -1.914021        -0.895179         0.445664
 H        -2.065221         0.380783        -2.123362
 H        -3.599133         0.545110        -1.303454
 H        -1.412591         2.640045        -1.761360
 H        -3.062570         3.022201        -1.155504
 H        -1.496464         3.203256         0.928512
