19
Iteration:   393
 O         0.406891         0.756123         0.096983
 C        -0.811847         0.876038         0.719757
 C        -1.234123         0.950845         2.265320
 C        -2.464657         1.344982         1.341145
 O        -3.816396         1.447020         1.682375
 C        -2.141392         0.190645         0.272220
 C        -2.657489         0.792317        -1.129485
 C        -2.190860         2.243522        -1.024341
 C        -1.596176         2.256798         0.400700
 H         0.837659         1.527183        -0.175386
 H        -1.348868        -0.031772         2.624386
 H        -0.797708         1.501053         3.081002
 H        -3.943935         2.311010         1.834745
 H        -2.337451        -0.765587         0.611961
 H        -2.236603         0.277218        -1.971591
 H        -3.696390         0.543565        -1.228763
 H        -1.551976         2.537503        -1.949837
 H        -3.042710         2.958171        -0.883939
 H        -1.171404         3.190095         0.751044
