19
Iteration:  3500
 O         0.406472         0.782516         0.184524
 C        -0.848537         0.887050         0.622237
 C        -1.174063         0.875336         2.133338
 C        -2.544255         1.288605         1.315152
 O        -3.778108         1.550507         1.857730
 C        -2.181849         0.305622         0.205007
 C        -2.527732         0.698487        -1.163477
 C        -2.233899         2.232764        -1.012695
 C        -1.636016         2.271983         0.426374
 H         1.043371         0.869681         0.955299
 H        -1.328867        -0.027807         2.773977
 H        -0.754289         1.703118         2.670819
 H        -4.369232         1.903008         1.125200
 H        -2.520693        -0.737701         0.433624
 H        -1.939171         0.214949        -1.994382
 H        -3.501423         0.547928        -1.614880
 H        -1.489024         2.627490        -1.736025
 H        -3.170529         2.764512        -1.028553
 H        -1.267117         3.257240         0.741248
