19
Iteration:  3166charge 0 multiplicity 1
 O         0.454477         0.655419         0.222223
 C        -0.806078         1.014456         0.666252
 C        -1.261340         0.901447         2.101584
 C        -2.601543         1.251582         1.292945
 O        -3.810568         1.521917         1.791805
 C        -2.135364         0.223570         0.232262
 C        -2.477297         0.750146        -1.125278
 C        -2.212409         2.252059        -0.981453
 C        -1.703149         2.341536         0.376493
 H         0.767495         0.844340        -0.619494
 H        -1.001667        -0.040436         2.592776
 H        -0.987520         1.698415         2.828309
 H        -3.779778         2.452930         2.261445
 H        -2.156634        -0.863484         0.449080
 H        -1.898801         0.148116        -1.842663
 H        -3.538682         0.561916        -1.420624
 H        -1.497746         2.648518        -1.736196
 H        -3.253809         2.769479        -1.112006
 H        -1.590918         3.289211         0.934395
