19
Iteration:  3291charge 0 multiplicity 1
 O         0.543162         0.728620         0.251399
 C        -0.828481         0.897328         0.678023
 C        -1.184427         0.921738         2.156655
 C        -2.538033         1.369211         1.285178
 O        -3.823156         1.502488         1.851469
 C        -2.218540         0.266296         0.231603
 C        -2.548681         0.754780        -1.143231
 C        -2.210837         2.272569        -1.061729
 C        -1.707588         2.246590         0.397775
 H         0.413715         0.733951        -0.664316
 H        -1.146021        -0.085802         2.635979
 H        -0.704687         1.655868         2.797202
 H        -4.509039         1.438529         1.058929
 H        -2.343419        -0.807244         0.498895
 H        -2.004825         0.217697        -1.959407
 H        -3.631251         0.635031        -1.242308
 H        -1.416966         2.718315        -1.695382
 H        -2.990820         3.030847        -1.111789
 H        -1.343051         3.193124         0.827858
