19
Iteration:  3669charge 0 multiplicity 1
 O         0.350451         0.796281         0.011656
 C        -0.836169         0.904389         0.729257
 C        -1.373421         0.868423         2.231465
 C        -2.452800         1.371633         1.230246
 O        -3.763100         1.547089         1.744169
 C        -2.188079         0.223819         0.307028
 C        -2.514543         0.702717        -1.100608
 C        -2.201180         2.327298        -0.967673
 C        -1.545382         2.227305         0.434570
 H         1.068958         0.740729         0.661376
 H        -1.327126        -0.130159         2.677650
 H        -0.809025         1.546396         2.906359
 H        -4.418268         1.052539         1.129208
 H        -2.306779        -0.782373         0.712946
 H        -1.840296         0.439025        -1.890851
 H        -3.553694         0.390049        -1.361455
 H        -1.549425         2.621125        -1.806254
 H        -3.072676         3.027090        -0.825597
 H        -1.252047         3.270428         0.637744
