19
Iteration:  4657
 O         0.499338         0.713674         0.346417
 C        -0.813281         1.075281         0.727618
 C        -1.199880         1.196057         2.122390
 C        -2.545883         1.388170         1.234341
 O        -3.805384         1.457231         1.768003
 C        -2.112368         0.191215         0.327362
 C        -2.620629         0.515012        -1.098941
 C        -2.245572         2.071754        -1.170267
 C        -1.712486         2.277368         0.336580
 H         0.662993         1.137177        -0.607583
 H        -0.953466         0.393283         2.821102
 H        -0.817338         2.122453         2.658793
 H        -3.996860         2.360974         2.060627
 H        -2.150188        -0.876361         0.603248
 H        -2.087786        -0.013228        -1.834686
 H        -3.697346         0.413131        -1.102067
 H        -1.538200         2.349713        -1.957510
 H        -3.211215         2.682966        -1.339319
 H        -1.312425         3.278556         0.436528
