19
Iteration:  4899charge 0 multiplicity 1
 O         0.436056         0.784543         0.198571
 C        -0.873940         1.000349         0.691675
 C        -1.235895         1.229517         2.250578
 C        -2.514187         1.334668         1.301356
 O        -3.806449         1.607897         1.660236
 C        -2.119432         0.152436         0.356596
 C        -2.438658         0.531701        -1.032489
 C        -2.280369         2.092477        -1.072367
 C        -1.683302         2.182229         0.269522
 H         0.278383         1.052691        -0.798859
 H        -1.180387         0.147421         2.665614
 H        -0.929577         2.071098         2.865394
 H        -3.943467         1.812283         2.612188
 H        -2.240935        -0.859912         0.753412
 H        -1.778266        -0.043835        -1.772463
 H        -3.473845         0.149356        -1.337762
 H        -1.488310         2.342203        -1.825183
 H        -3.246018         2.707778        -1.399519
 H        -1.321067         3.234775         0.628261
