19
Iteration:  3371charge 0 multiplicity 1
 O         0.429283         0.755192         0.160078
 C        -0.783286         0.986000         0.695597
 C        -1.267536         0.885234         2.152615
 C        -2.516884         1.212741         1.279593
 O        -3.820648         1.638554         1.845857
 C        -2.179469         0.213814         0.265927
 C        -2.521373         0.677573        -1.184190
 C        -2.205812         2.214715        -1.015260
 C        -1.628232         2.252601         0.440097
 H         0.795833         1.517814        -0.216038
 H        -1.216249        -0.175213         2.503654
 H        -0.795680         1.613585         2.863747
 H        -4.463553         1.719866         1.062930
 H        -2.373502        -0.818635         0.642432
 H        -1.893369         0.260100        -1.996594
 H        -3.579759         0.577249        -1.496907
 H        -1.563771         2.806098        -1.736893
 H        -3.082246         2.817711        -0.818762
 H        -1.332957         3.236167         0.803038
