19
Iteration:  3084
 O         0.453282         0.621395         0.335697
 C        -0.768891         1.052432         0.639234
 C        -1.183747         0.938329         2.114648
 C        -2.585587         1.353389         1.262488
 O        -3.801638         1.557322         1.791600
 C        -2.005552         0.242425         0.168131
 C        -2.622640         0.704188        -1.155461
 C        -2.214109         2.260302        -1.112747
 C        -1.776700         2.297168         0.470088
 H         0.780426         0.898759        -0.544979
 H        -1.297609        -0.049595         2.612667
 H        -0.685118         1.694624         2.783661
 H        -4.047265         0.931300         2.474593
 H        -2.243025        -0.800429         0.418086
 H        -2.484185         0.191117        -2.131008
 H        -3.700114         0.747684        -0.985843
 H        -1.337194         2.617443        -1.747604
 H        -3.128148         2.779769        -1.264699
 H        -1.394715         3.124671         1.024477
