19
Iteration:   779
 O         0.480908         0.773671         0.123083
 C        -0.830033         0.937219         0.671228
 C        -1.301318         0.850540         2.096239
 C        -2.533012         1.335733         1.343479
 O        -3.821038         1.631382         1.853727
 C        -2.116181         0.250880         0.193714
 C        -2.482830         0.724017        -1.152311
 C        -2.262613         2.242676        -0.938033
 C        -1.626757         2.290278         0.416262
 H         0.387669        -0.025529        -0.533186
 H        -1.350779        -0.155992         2.569049
 H        -0.927813         1.513222         2.844061
 H        -4.151584         0.943079         2.483533
 H        -2.179116        -0.869489         0.449295
 H        -1.873711         0.293339        -2.007983
 H        -3.533378         0.566618        -1.575589
 H        -1.653781         2.778817        -1.697771
 H        -3.204810         2.741541        -1.039117
 H        -1.233587         3.341514         0.625933
