19
Iteration:  4138charge 0 multiplicity 1
 O         0.427956         0.673690         0.251119
 C        -0.882006         1.051943         0.645310
 C        -1.253329         1.043656         2.139721
 C        -2.531660         1.300204         1.271911
 O        -3.788159         1.595850         1.838900
 C        -2.159406         0.205674         0.227236
 C        -2.534623         0.616905        -1.144418
 C        -2.154219         2.199844        -1.102446
 C        -1.764451         2.306467         0.320988
 H         1.077594         1.433563         0.551937
 H        -1.101864         0.007876         2.544747
 H        -0.708545         1.759499         2.783460
 H        -3.751010         1.000422         2.659987
 H        -2.118527        -0.848686         0.569851
 H        -1.892875         0.057021        -1.873377
 H        -3.621476         0.464564        -1.368705
 H        -1.324872         2.300931        -1.780963
 H        -3.083695         2.750490        -1.323966
 H        -1.364260         3.240097         0.802702
