19
Iteration:   829charge 0 multiplicity 1
 O         0.333123         0.825127         0.037976
 C        -0.865483         0.949645         0.668197
 C        -1.254532         0.919046         2.142233
 C        -2.487871         1.310987         1.278596
 O        -3.749819         1.568938         1.816315
 C        -2.192754         0.221834         0.237164
 C        -2.540461         0.720161        -1.125680
 C        -2.202268         2.268345        -0.952688
 C        -1.556957         2.238837         0.471481
 H         0.753843         0.106951         0.514327
 H        -1.271593        -0.102657         2.547875
 H        -0.754728         1.705785         2.816826
 H        -4.257052         0.812066         1.621072
 H        -2.421050        -0.738556         0.567376
 H        -1.820823         0.285048        -1.804809
 H        -3.464732         0.525765        -1.554205
 H        -1.527946         2.714914        -1.698745
 H        -3.130003         2.921825        -1.060231
 H        -1.236073         3.100022         1.056272
