19
Iteration:  4756charge 0 multiplicity 1
 O         0.494365         0.853137         0.084224
 C        -0.844751         1.029550         0.709713
 C        -1.225935         1.146743         2.206684
 C        -2.582315         1.296723         1.356565
 O        -3.865219         1.720475         1.678728
 C        -2.024329         0.153636         0.385264
 C        -2.443963         0.522842        -1.065016
 C        -2.167148         2.026180        -1.072986
 C        -1.801746         2.208248         0.344924
 H         0.170074         0.036968        -0.491083
 H        -1.181986         0.240854         2.873828
 H        -1.052569         2.124802         2.674619
 H        -4.244512         1.380405         2.540835
 H        -2.023930        -0.873629         0.730540
 H        -1.981908        -0.073616        -1.847006
 H        -3.539806         0.508425        -1.147899
 H        -1.626163         2.443822        -1.854507
 H        -3.138535         2.499385        -1.460557
 H        -1.359329         3.112368         0.698949
