19
Iteration:   763charge 0 multiplicity 1
 O         0.416067         0.767788         0.269700
 C        -0.850314         0.977714         0.606822
 C        -1.278340         0.868505         2.144621
 C        -2.465345         1.300905         1.272495
 O        -3.689108         1.541618         1.752031
 C        -2.224102         0.248687         0.264738
 C        -2.548493         0.761952        -1.163674
 C        -2.266614         2.301099        -1.024240
 C        -1.643943         2.257363         0.405554
 H         0.442028         0.307803        -0.603234
 H        -1.327187        -0.181061         2.491791
 H        -0.754157         1.605672         2.894632
 H        -3.602211         1.118086         2.723809
 H        -2.407955        -0.748277         0.512815
 H        -1.935590         0.253552        -1.911049
 H        -3.527430         0.448637        -1.409407
 H        -1.756362         2.746944        -1.883333
 H        -3.177744         2.996842        -0.924026
 H        -1.256788         3.085667         0.993905
