19
Iteration:  1048
 O         0.582302         0.829349         0.088322
 C        -0.762291         0.845872         0.684629
 C        -1.254906         0.940382         2.173119
 C        -2.504509         1.184776         1.317282
 O        -3.826601         1.683130         1.704852
 C        -2.144504         0.165070         0.190126
 C        -2.739165         0.861753        -1.075542
 C        -2.234605         2.269569        -0.955230
 C        -1.629506         2.136129         0.431544
 H         1.099809         0.251827         0.746040
 H        -1.125682         0.111431         2.799356
 H        -0.830311         1.921249         2.631125
 H        -4.534239         0.891961         1.580472
 H        -2.279736        -0.893822         0.310627
 H        -2.389274         0.384596        -2.032871
 H        -3.852671         0.785921        -0.920495
 H        -1.458072         2.538456        -1.747279
 H        -3.085274         3.043352        -0.862678
 H        -1.395497         3.101298         0.916005
