19
Iteration:  2281
 O         0.455918         0.704630         0.062160
 C        -0.737665         0.989847         0.701745
 C        -1.236220         0.970348         2.151422
 C        -2.516357         1.335534         1.279156
 O        -3.804474         1.586924         1.797099
 C        -2.177571         0.299563         0.261919
 C        -2.488068         0.700135        -1.122082
 C        -2.211671         2.174566        -0.974245
 C        -1.751391         2.370226         0.404940
 H         0.474722        -0.339472         0.213675
 H        -1.527562        -0.100935         2.498130
 H        -0.946995         1.701115         2.923128
 H        -4.071201         0.628690         2.154693
 H        -2.364306        -0.768760         0.531505
 H        -1.815345         0.106135        -1.785831
 H        -3.433447         0.439054        -1.467543
 H        -1.609993         2.547211        -1.804195
 H        -3.138616         2.836482        -0.988704
 H        -1.557194         3.390212         0.848036
