19
Iteration:  1258
 O         0.422442         0.761627         0.138630
 C        -0.827433         1.026532         0.640606
 C        -1.294567         0.932551         2.207461
 C        -2.494387         1.273509         1.319225
 O        -3.768757         1.595220         1.873289
 C        -2.142667         0.237675         0.209404
 C        -2.548239         0.688747        -1.213907
 C        -2.239186         2.241338        -1.078703
 C        -1.623060         2.283350         0.426027
 H         0.520361        -0.222774         0.077257
 H        -1.298505         0.073934         2.781445
 H        -1.035154         1.749606         2.921047
 H        -4.023600         0.812649         2.263866
 H        -2.108713        -0.782703         0.408472
 H        -1.924935         0.097250        -2.015881
 H        -3.636144         0.703252        -1.368562
 H        -1.526217         2.630062        -1.867151
 H        -3.142574         2.919796        -1.078937
 H        -1.247115         3.287312         0.874835
