19
Iteration:  1753
 O         0.361129         0.811553         0.063706
 C        -0.865873         0.983291         0.716761
 C        -1.187561         0.991128         2.214995
 C        -2.585346         1.244981         1.296662
 O        -3.844312         1.638966         1.883279
 C        -2.162055         0.208595         0.219033
 C        -2.446553         0.692749        -1.162250
 C        -2.104311         2.170878        -1.098050
 C        -1.676053         2.280833         0.377139
 H         0.624019        -0.124286         0.036853
 H        -0.991322         0.162660         2.885544
 H        -0.842736         1.892987         2.608432
 H        -4.035972         1.012423         2.566318
 H        -2.234917        -0.828200         0.535111
 H        -1.921986         0.041646        -1.879031
 H        -3.486644         0.499127        -1.367074
 H        -1.537664         2.581497        -1.836680
 H        -3.085650         2.644300        -1.141088
 H        -1.426727         3.224976         0.973129
