19
Iteration:  4295charge 0 multiplicity 1
 O         0.521894         0.712405         0.277141
 C        -0.828132         1.091382         0.638591
 C        -1.330219         1.159850         2.162895
 C        -2.571818         1.345055         1.290827
 O        -3.802731         1.520702         1.925049
 C        -2.090939         0.204162         0.305762
 C        -2.558377         0.540085        -1.185961
 C        -2.227995         2.096814        -1.128044
 C        -1.658261         2.237109         0.286148
 H         0.796467         1.117324        -0.546086
 H        -1.213441         0.226625         2.712299
 H        -0.963843         2.060661         2.699410
 H        -4.152880         2.395544         1.769869
 H        -2.165360        -0.781208         0.794303
 H        -2.068433        -0.127166        -1.868688
 H        -3.609411         0.266881        -1.398717
 H        -1.406821         2.387009        -1.863528
 H        -3.266589         2.561934        -1.194298
 H        -1.265292         3.235105         0.538605
