19
Iteration:  1153charge 0 multiplicity 1
 O         0.475783         0.644668         0.166106
 C        -0.804484         1.038343         0.640852
 C        -1.201165         0.877934         2.176188
 C        -2.539672         1.324807         1.327677
 O        -3.910918         1.633006         1.913762
 C        -2.188552         0.261791         0.232262
 C        -2.484494         0.725289        -1.248723
 C        -2.196077         2.239477        -1.045768
 C        -1.689404         2.275183         0.417021
 H         0.585419         1.026597        -0.815891
 H        -1.371950        -0.287260         2.377386
 H        -0.687300         1.509357         2.875492
 H        -3.935027         0.874776         2.508503
 H        -2.285010        -0.821098         0.660332
 H        -1.740973         0.353841        -1.906153
 H        -3.437865         0.402912        -1.690139
 H        -1.547272         2.602236        -1.792834
 H        -2.980661         2.958246        -0.997424
 H        -1.394857         3.201018         0.824900
