19
Iteration:  1645
 O         0.436976         0.750588         0.098048
 C        -0.866831         1.037742         0.580434
 C        -1.290177         0.850889         2.182779
 C        -2.457115         1.351664         1.404982
 O        -3.839221         1.645385         1.834619
 C        -2.068330         0.246664         0.231651
 C        -2.503120         0.671553        -1.132627
 C        -2.290013         2.186863        -1.077695
 C        -1.648194         2.300835         0.327502
 H         0.883721         0.452720         0.828272
 H        -1.442847        -0.195671         2.740290
 H        -0.917721         1.532664         2.953396
 H        -4.130969         1.081220         2.486775
 H        -2.018998        -0.683346         0.596701
 H        -1.870559         0.084802        -1.808535
 H        -3.525231         0.367357        -1.281906
 H        -1.538259         2.470769        -1.783061
 H        -3.267605         2.716673        -1.163107
 H        -1.251592         3.266892         0.603176
