19
Iteration:  2880charge 0 multiplicity 1
 O         0.464731         0.895003         0.201271
 C        -0.869154         0.929017         0.617444
 C        -1.232869         0.957324         2.145631
 C        -2.486926         1.365484         1.363423
 O        -3.796122         1.679395         1.765129
 C        -2.183201         0.076244         0.258077
 C        -2.534036         0.700839        -1.118550
 C        -2.250597         2.186029        -0.994334
 C        -1.607862         2.188150         0.408250
 H         0.439733         0.507509        -0.708928
 H        -1.410196         0.052547         2.739778
 H        -0.761288         1.821224         2.655034
 H        -4.417707         0.853694         1.712336
 H        -2.411138        -0.970402         0.435927
 H        -1.745504         0.163123        -1.673035
 H        -3.551828         0.327694        -1.364225
 H        -1.599619         2.443227        -1.774279
 H        -3.138777         2.830904        -1.148847
 H        -1.121459         3.129454         0.821493
