19
Iteration:  1067charge 0 multiplicity 1
 O         0.393685         0.823754         0.175976
 C        -0.839585         0.959131         0.637707
 C        -1.232748         0.867405         2.177935
 C        -2.426973         1.271025         1.297553
 O        -3.713149         1.625930         1.650763
 C        -2.174226         0.212682         0.204055
 C        -2.717599         0.716264        -1.117040
 C        -2.230520         2.271472        -0.939168
 C        -1.587844         2.277736         0.462354
 H         0.941419         0.198854         0.599407
 H        -1.322438        -0.182318         2.525412
 H        -0.804853         1.667745         2.788002
 H        -4.117264         0.677006         1.894844
 H        -2.287729        -0.889033         0.507057
 H        -2.299673         0.245971        -2.020153
 H        -3.858637         0.767482        -1.114913
 H        -1.538555         2.571666        -1.687716
 H        -3.049735         2.959239        -0.942682
 H        -1.035237         3.064891         0.845073
