19
Iteration:  3318charge 0 multiplicity 1
 O         0.452439         0.558216         0.272799
 C        -0.830072         1.071332         0.635590
 C        -1.350341         1.027362         2.101300
 C        -2.504592         1.236779         1.260192
 O        -3.739978         1.501758         1.968211
 C        -2.105350         0.294664         0.133382
 C        -2.500695         0.764399        -1.165076
 C        -2.262272         2.173237        -1.052608
 C        -1.696097         2.309352         0.435898
 H         0.768026         1.016852        -0.450860
 H        -1.259415         0.000907         2.497702
 H        -1.151785         1.795690         2.916464
 H        -4.451337         1.808425         1.229811
 H        -1.746569        -0.734353         0.183042
 H        -1.955037         0.288507        -1.967787
 H        -3.608216         0.653700        -1.169373
 H        -1.463799         2.647845        -1.679236
 H        -3.060979         2.942165        -1.223417
 H        -1.474603         3.256182         0.947297
