19
Iteration:   693charge 0 multiplicity 1
 O         0.411871         0.714365         0.053385
 C        -0.847923         0.918931         0.634417
 C        -1.198351         0.892095         2.193518
 C        -2.441589         1.414518         1.429193
 O        -3.798405         1.410844         1.700824
 C        -2.186067         0.257599         0.236786
 C        -2.639019         0.781902        -1.122639
 C        -2.159323         2.226455        -0.991297
 C        -1.611661         2.270816         0.453159
 H         0.963708         1.355718         0.422444
 H        -1.340711        -0.118893         2.652569
 H        -0.835961         1.577526         2.928030
 H        -4.351347         2.305578         1.645255
 H        -2.393814        -0.777127         0.757692
 H        -2.308927         0.177919        -2.006256
 H        -3.777852         0.711920        -1.226445
 H        -1.433998         2.638805        -1.799144
 H        -3.049739         3.006876        -1.115246
 H        -1.275640         3.130181         0.979053
