19
Iteration:  1802
 O         0.389656         0.798093         0.097806
 C        -0.807305         1.073919         0.693532
 C        -1.248405         0.922211         2.089218
 C        -2.501091         1.327926         1.354116
 O        -3.823698         1.674614         1.846064
 C        -2.217545         0.267568         0.249056
 C        -2.411978         0.617110        -1.203734
 C        -2.228708         2.119394        -1.032819
 C        -1.643783         2.268828         0.383636
 H         0.933721         0.089558         0.494993
 H        -1.332780        -0.233439         2.408397
 H        -0.893581         1.532730         3.034220
 H        -4.037993         1.021055         2.634223
 H        -2.319914        -0.824951         0.525531
 H        -1.936200        -0.042264        -1.957612
 H        -3.533101         0.466314        -1.402965
 H        -1.667440         2.758759        -1.858416
 H        -3.268013         2.511623        -0.923244
 H        -1.294155         3.183573         0.848658
