19
Iteration:  3920charge 0 multiplicity 1
 O         0.449694         0.821711         0.139502
 C        -0.876360         0.892335         0.653785
 C        -1.187862         0.829756         2.130104
 C        -2.488993         1.378563         1.362087
 O        -3.830709         1.660069         1.733606
 C        -2.165575         0.246505         0.261221
 C        -2.529195         0.672129        -1.159435
 C        -2.199337         2.241431        -1.002556
 C        -1.697690         2.294703         0.488028
 H         0.790840         0.172290         0.720960
 H        -1.331428        -0.145454         2.582906
 H        -0.470738         1.458119         2.612776
 H        -4.299442         0.968510         1.336144
 H        -2.230474        -0.851912         0.562536
 H        -2.099364         0.185596        -1.993839
 H        -3.606520         0.380346        -1.359741
 H        -1.561635         2.593622        -1.813237
 H        -3.148681         2.804207        -1.012036
 H        -1.206603         3.248538         0.904601
