19
Iteration:   242
 O         0.540434         0.788863         0.125745
 C        -0.819506         0.962591         0.702639
 C        -1.224475         0.906700         2.233121
 C        -2.495083         1.323799         1.378214
 O        -3.846154         1.462126         1.721010
 C        -2.174159         0.246667         0.237634
 C        -2.636057         0.752392        -1.203108
 C        -2.216247         2.243825        -1.008296
 C        -1.645343         2.268082         0.388311
 H         0.653966        -0.122717         0.046488
 H        -1.325447        -0.032635         2.756986
 H        -0.777642         1.756444         2.835414
 H        -4.001287         2.241673         2.252702
 H        -2.254183        -0.805894         0.452476
 H        -2.159542         0.282292        -2.101503
 H        -3.722168         0.667707        -1.244182
 H        -1.545854         2.647038        -1.738801
 H        -3.078903         2.897091        -1.089542
 H        -1.363426         3.175180         0.845556
