19
Iteration:    79charge 0 multiplicity 1
 O         0.559015         0.789018         0.168622
 C        -0.739766         0.914202         0.706821
 C        -1.210996         0.839205         2.111029
 C        -2.559138         1.293154         1.327277
 O        -3.909263         1.480006         1.816768
 C        -2.149682         0.242875         0.199672
 C        -2.581355         0.822140        -1.180291
 C        -2.216688         2.293532        -1.024637
 C        -1.687300         2.262010         0.438252
 H         0.540976        -0.122159        -0.136955
 H        -1.216088        -0.076751         2.643608
 H        -0.762421         1.595178         2.790882
 H        -4.056621         2.377685         1.886513
 H        -2.391373        -0.760106         0.488346
 H        -2.093644         0.302339        -2.009013
 H        -3.641820         0.661583        -1.252117
 H        -1.507952         2.769616        -1.683760
 H        -3.117778         2.893704        -1.084218
 H        -1.406740         3.218953         0.963808
