19
Iteration:  4953charge 0 multiplicity 1
 O         0.490315         0.807237         0.349097
 C        -0.823351         1.069112         0.649858
 C        -1.266158         1.132237         2.179671
 C        -2.520938         1.346353         1.283402
 O        -3.720953         1.633097         1.819905
 C        -2.082043         0.241888         0.296036
 C        -2.586463         0.533938        -1.107794
 C        -2.301817         2.040355        -1.193581
 C        -1.728964         2.290812         0.271542
 H         0.380348        -0.071372        -0.151106
 H        -1.260810         0.191346         2.817266
 H        -0.843957         1.940517         2.741104
 H        -4.233301         0.811072         1.852343
 H        -1.779082        -0.714138         0.770413
 H        -2.046009        -0.180276        -1.781313
 H        -3.632745         0.240093        -1.512589
 H        -1.492823         2.224540        -1.841458
 H        -3.266089         2.464010        -1.432058
 H        -1.413734         3.383028         0.601100
