19
Iteration:  1305charge 0 multiplicity 1
 O         0.385874         0.751556         0.155602
 C        -0.884308         1.044699         0.694042
 C        -1.229762         0.930049         2.163966
 C        -2.538189         1.240823         1.373625
 O        -3.739501         1.642904         1.849780
 C        -2.172626         0.245040         0.257637
 C        -2.455101         0.655759        -1.247199
 C        -2.165589         2.209150        -1.049018
 C        -1.714391         2.262808         0.416274
 H         0.083341         0.680767        -0.849211
 H        -1.024158        -0.102116         2.465448
 H        -0.854158         1.526059         2.858994
 H        -4.154064         1.108435         2.532798
 H        -2.238286        -0.849627         0.519988
 H        -1.651016         0.240697        -1.905564
 H        -3.463648         0.489068        -1.624909
 H        -1.418693         2.752069        -1.714957
 H        -3.189055         2.720320        -1.156391
 H        -1.510865         3.242172         0.791746
