19
Iteration:  3802charge 0 multiplicity 1
 O         0.388620         0.848880         0.038923
 C        -0.828978         0.997994         0.673059
 C        -1.333030         0.938438         2.237689
 C        -2.546975         1.158720         1.383325
 O        -3.822705         1.587960         1.754966
 C        -2.073786         0.154250         0.199330
 C        -2.531634         0.771923        -1.094394
 C        -2.097446         2.227508        -0.971488
 C        -1.660386         2.198889         0.483889
 H         0.660698        -0.015271        -0.250155
 H        -1.244247        -0.085755         2.762825
 H        -0.938417         1.821550         2.747274
 H        -4.042700         2.482894         1.345079
 H        -2.205545        -0.933450         0.452425
 H        -2.212959         0.251995        -2.011153
 H        -3.612537         0.593389        -1.327611
 H        -1.298800         2.481342        -1.659313
 H        -2.968516         2.968678        -1.170289
 H        -1.325850         3.245220         0.786292
