19
Iteration:  3739
 O         0.499860         0.725416         0.225202
 C        -0.837466         0.947273         0.689752
 C        -1.362992         0.931381         2.117392
 C        -2.573403         1.310393         1.268362
 O        -3.697516         1.477489         1.928563
 C        -2.176306         0.277206         0.202500
 C        -2.599478         0.728805        -1.238683
 C        -2.217736         2.302782        -1.045900
 C        -1.544843         2.328298         0.323460
 H         0.951148         0.204892         0.911522
 H        -1.383829         0.040051         2.834163
 H        -0.951880         1.636269         2.838181
 H        -4.511119         1.127126         1.375146
 H        -2.490850        -0.735560         0.511670
 H        -1.943325         0.292684        -2.072290
 H        -3.691024         0.630878        -1.450776
 H        -1.602535         2.652245        -1.883049
 H        -3.141594         2.909592        -0.849539
 H        -1.317060         3.256506         0.832342
