19
Iteration:  3863charge 0 multiplicity 1
 O         0.452987         0.685910         0.220101
 C        -0.783567         0.938911         0.669743
 C        -1.272169         0.979207         2.113400
 C        -2.525864         1.313517         1.305360
 O        -3.847642         1.543486         1.816250
 C        -2.074252         0.194320         0.121519
 C        -2.548841         0.760150        -1.210229
 C        -2.240288         2.288642        -1.014774
 C        -1.737313         2.275263         0.398770
 H         0.860180         0.004497         0.838779
 H        -1.161874         0.053551         2.618367
 H        -0.746018         1.765013         2.718938
 H        -3.724369         1.781128         2.829190
 H        -2.296243        -0.882261         0.328190
 H        -1.970954         0.383673        -2.040816
 H        -3.609927         0.543496        -1.075659
 H        -1.479264         2.674118        -1.743810
 H        -3.051308         2.967408        -1.141764
 H        -1.323517         3.210692         0.782458
