19
Iteration:  3786
 O         0.410156         0.834975         0.139427
 C        -0.823970         0.996811         0.732106
 C        -1.228330         0.910649         2.149169
 C        -2.494900         1.228478         1.244928
 O        -3.755894         1.583406         1.785340
 C        -2.174551         0.182027         0.216606
 C        -2.590532         0.752778        -1.184917
 C        -2.148430         2.221476        -0.999064
 C        -1.748281         2.238404         0.509054
 H         0.552451        -0.077167         0.024966
 H        -1.109002         0.016658         2.680132
 H        -0.978610         1.676030         2.946541
 H        -4.054755         2.213851         1.175848
 H        -2.114224        -0.920379         0.432094
 H        -1.997230         0.189598        -1.930429
 H        -3.696412         0.617839        -1.204821
 H        -1.192695         2.402011        -1.543003
 H        -2.890946         2.914648        -1.240029
 H        -1.480169         3.082630         1.158513
