19
Iteration:   806
 O         0.431595         0.760429        -0.008228
 C        -0.822227         0.953661         0.684632
 C        -1.223367         0.913653         2.183982
 C        -2.545659         1.182212         1.375904
 O        -3.786454         1.709771         1.839680
 C        -2.081319         0.201064         0.198062
 C        -2.466598         0.732521        -1.182107
 C        -2.226624         2.303314        -0.959777
 C        -1.775801         2.232106         0.506136
 H         0.477919        -0.275072         0.043435
 H        -1.162532        -0.026164         2.697152
 H        -0.844078         1.765935         2.820068
 H        -4.562428         1.082218         1.795558
 H        -2.072224        -0.864548         0.368414
 H        -1.852248         0.268569        -1.928687
 H        -3.446070         0.600259        -1.569596
 H        -1.429864         2.841278        -1.507776
 H        -3.167492         2.870837        -1.305765
 H        -1.560937         3.173978         0.912500
