19
Iteration:  4272
 O         0.525765         0.704956         0.369603
 C        -0.839026         0.965841         0.679577
 C        -1.173581         1.208710         2.083022
 C        -2.532350         1.320135         1.295667
 O        -3.775106         1.564490         1.910519
 C        -2.175025         0.171686         0.256279
 C        -2.549501         0.616739        -1.106578
 C        -2.260210         2.166867        -1.136105
 C        -1.748386         2.218222         0.275159
 H         0.688721         1.164535        -0.565933
 H        -1.050576         0.392162         2.835515
 H        -0.843054         2.196671         2.414603
 H        -4.481490         1.448881         1.189794
 H        -2.246615        -0.900329         0.525813
 H        -2.010126         0.055076        -1.836131
 H        -3.572198         0.238936        -1.370067
 H        -1.447126         2.278037        -1.867483
 H        -3.220578         2.727686        -1.313970
 H        -1.485492         3.238797         0.670374
