19
Iteration:  4069charge 0 multiplicity 1
 O         0.483951         0.722585         0.211446
 C        -0.822796         0.960709         0.645987
 C        -1.129124         0.918702         2.201231
 C        -2.520330         1.359817         1.302914
 O        -3.839203         1.650089         1.650812
 C        -2.078888         0.207972         0.309597
 C        -2.574277         0.613311        -1.082537
 C        -2.277725         2.230073        -1.003293
 C        -1.723524         2.328489         0.478972
 H         0.472241         0.711187        -0.728190
 H        -1.337959        -0.084894         2.592725
 H        -0.703361         1.569475         3.064433
 H        -4.441892         1.204593         1.000589
 H        -2.211264        -0.863547         0.469442
 H        -1.865748         0.177099        -1.901795
 H        -3.642764         0.378013        -1.221780
 H        -1.426458         2.552426        -1.682873
 H        -3.197672         2.840904        -1.097242
 H        -1.436768         3.302026         0.792390
