19
Iteration:   321
 O         0.507272         0.705523         0.243878
 C        -0.800470         1.006276         0.615772
 C        -1.304367         0.971401         2.068059
 C        -2.527983         1.301847         1.280240
 O        -3.821787         1.498522         1.887312
 C        -2.181089         0.169111         0.209658
 C        -2.554604         0.745266        -1.139598
 C        -2.225919         2.254005        -0.997805
 C        -1.663362         2.279941         0.381074
 H         0.581569         0.802038        -0.671294
 H        -1.451025        -0.029593         2.555639
 H        -0.882622         1.735894         2.802166
 H        -3.772709         2.212243         2.432283
 H        -2.212753        -0.936813         0.498805
 H        -1.850868         0.303972        -1.907419
 H        -3.541947         0.482733        -1.582671
 H        -1.506087         2.572637        -1.705525
 H        -3.100396         2.881777        -1.144531
 H        -1.138872         3.142948         0.930483
