19
Iteration:  2165
 O         0.514285         0.753119         0.215998
 C        -0.860990         0.954853         0.628157
 C        -1.255601         1.039665         2.117634
 C        -2.550023         1.203553         1.334969
 O        -3.757136         1.620400         1.643951
 C        -2.076935         0.153364         0.240431
 C        -2.567561         0.768735        -1.065894
 C        -2.360374         2.277890        -0.949084
 C        -1.653605         2.220287         0.371285
 H         0.803022        -0.265480         0.435705
 H        -1.245877         0.105853         2.625771
 H        -0.746237         1.936889         2.470066
 H        -4.013755         1.147493         2.535541
 H        -2.109440        -0.924248         0.519507
 H        -1.955057         0.443796        -1.989227
 H        -3.735549         0.640930        -1.341343
 H        -1.728944         2.706918        -1.841234
 H        -3.259438         2.882705        -0.796967
 H        -1.220102         3.107685         0.796292
