19
Iteration:  1449charge 0 multiplicity 1
 O         0.401608         0.707823        -0.056814
 C        -0.862334         0.922711         0.694947
 C        -1.204494         1.057134         2.206784
 C        -2.546680         1.267692         1.356994
 O        -3.805517         1.666516         1.889295
 C        -2.202364         0.209372         0.241349
 C        -2.367466         0.645651        -1.234343
 C        -2.201887         2.260301        -1.047359
 C        -1.775922         2.200777         0.465514
 H         1.027986         0.927188         0.649610
 H        -1.162414         0.251341         3.054649
 H        -0.944375         2.012979         2.565760
 H        -4.038709         0.961998         2.569193
 H        -2.452734        -0.910945         0.421942
 H        -1.606741         0.070941        -1.822541
 H        -3.395615         0.499597        -1.702456
 H        -1.369837         2.693467        -1.674230
 H        -3.172263         2.841564        -1.245099
 H        -1.493674         3.073290         0.957149
