19
Iteration:  3957charge 0 multiplicity 1
 O         0.355400         0.847149        -0.008226
 C        -0.822761         0.976649         0.740334
 C        -1.412418         0.973201         2.284486
 C        -2.528533         1.280759         1.323160
 O        -3.755334         1.572800         1.758842
 C        -2.052854         0.140079         0.239326
 C        -2.550011         0.683078        -1.123872
 C        -2.100613         2.229860        -0.998369
 C        -1.584474         2.228883         0.473943
 H         0.530635        -0.088896        -0.273842
 H        -1.485631         0.082506         2.978755
 H        -0.944479         1.866391         2.720666
 H        -4.296473         1.815060         1.019796
 H        -2.223970        -0.921495         0.402508
 H        -2.074610         0.125522        -1.989818
 H        -3.639999         0.688357        -1.132698
 H        -1.449121         2.748334        -1.725580
 H        -3.028906         2.877979        -1.000421
 H        -1.363537         3.112943         1.034037
