19
Iteration:   150
 O         0.456454         0.687146         0.180566
 C        -0.801239         0.951694         0.679511
 C        -1.214286         0.855172         2.123408
 C        -2.524554         1.355427         1.334953
 O        -3.809994         1.457295         1.722728
 C        -2.222499         0.303007         0.267653
 C        -2.548715         0.765814        -1.198135
 C        -2.311031         2.271193        -1.009301
 C        -1.593590         2.253900         0.429140
 H         0.898651         1.592182         0.191922
 H        -1.229017        -0.130634         2.696591
 H        -0.797002         1.609364         2.787753
 H        -3.928796         1.781412         2.574220
 H        -2.502217        -0.719051         0.678807
 H        -1.829936         0.411657        -1.959217
 H        -3.591472         0.427472        -1.439648
 H        -1.613740         2.545630        -1.919087
 H        -3.102748         3.086360        -1.047959
 H        -1.059022         3.171623         0.761710
