19
Iteration:  4680charge 0 multiplicity 1
 O         0.562608         0.688409         0.444350
 C        -0.813140         1.029595         0.583953
 C        -1.288166         1.238527         2.110510
 C        -2.512019         1.292159         1.314164
 O        -3.779291         1.500149         1.781214
 C        -2.038047         0.195767         0.334427
 C        -2.634354         0.602574        -1.120905
 C        -2.327405         2.095396        -1.192687
 C        -1.746832         2.272393         0.264348
 H         0.867603         0.836380        -0.437901
 H        -1.027779         0.426291         2.845584
 H        -0.934507         2.162642         2.634519
 H        -3.729141         2.112327         2.532458
 H        -2.103136        -0.848243         0.618985
 H        -2.115013         0.031500        -1.841338
 H        -3.676446         0.505608        -1.099334
 H        -1.588728         2.238246        -1.993624
 H        -3.272098         2.668915        -1.508218
 H        -1.631943         3.297111         0.431484
