19
Iteration:   857
 O         0.595887         0.740319         0.071049
 C        -0.780650         0.982635         0.652950
 C        -1.258160         0.874410         2.155990
 C        -2.515304         1.318480         1.333817
 O        -3.885364         1.561031         1.857513
 C        -2.139102         0.258773         0.203364
 C        -2.631126         0.831544        -1.081406
 C        -2.254724         2.234223        -1.055319
 C        -1.638470         2.272719         0.399113
 H         0.933992         0.074047         0.749203
 H        -1.231502        -0.200800         2.436611
 H        -0.859540         1.575927         2.827309
 H        -4.229474         0.726842         1.838278
 H        -2.438523        -0.822701         0.515934
 H        -2.174462         0.341591        -1.979214
 H        -3.807003         0.761439        -1.146479
 H        -1.454595         2.519833        -1.750868
 H        -3.089144         2.884099        -1.234072
 H        -1.402630         3.227515         0.890352
