19
Iteration:  4325charge 0 multiplicity 1
 O         0.478580         0.803666         0.210561
 C        -0.847801         1.029667         0.663266
 C        -1.236457         1.033321         2.186330
 C        -2.479134         1.388630         1.326659
 O        -3.815439         1.613426         1.631463
 C        -2.138939         0.186253         0.393840
 C        -2.513055         0.508612        -1.046911
 C        -2.245348         2.077326        -1.113461
 C        -1.775804         2.308057         0.348263
 H         0.565460         0.890155        -0.861912
 H        -1.172782         0.039190         2.770088
 H        -0.710970         1.748235         2.826198
 H        -3.816503         1.882019         2.601670
 H        -2.201392        -0.769778         0.957274
 H        -1.787324         0.006234        -1.707630
 H        -3.586792         0.272147        -1.350094
 H        -1.454378         2.223665        -1.743187
 H        -3.232594         2.482993        -1.373975
 H        -1.377059         3.346501         0.621073
