19
Iteration:  3378charge 0 multiplicity 1
 O         0.437515         0.737468         0.114576
 C        -0.821010         1.035405         0.714585
 C        -1.282302         0.892767         2.176925
 C        -2.511451         1.221713         1.279153
 O        -3.813972         1.673110         1.839491
 C        -2.137621         0.134109         0.252525
 C        -2.524364         0.710178        -1.189612
 C        -2.219303         2.233351        -0.989942
 C        -1.596489         2.265680         0.450790
 H         0.785597         1.527851        -0.238876
 H        -1.354860        -0.179670         2.458346
 H        -1.144478         1.561631         2.990492
 H        -4.306349         1.598950         1.064635
 H        -2.089268        -0.930143         0.543584
 H        -2.056135         0.090542        -1.997428
 H        -3.566390         0.507096        -1.424387
 H        -1.516917         2.555870        -1.764761
 H        -3.186799         2.794619        -1.011902
 H        -1.426068         3.158724         1.098719
