19
Iteration:  2914
 O         0.471922         0.713460         0.279609
 C        -0.773504         1.095324         0.638805
 C        -1.262052         0.962129         2.118293
 C        -2.537261         1.342984         1.353492
 O        -3.813283         1.625668         1.779867
 C        -2.041831         0.144976         0.157243
 C        -2.597681         0.689237        -1.052268
 C        -2.233600         2.144413        -1.118408
 C        -1.676993         2.290469         0.428699
 H         0.595960         0.761576        -0.733578
 H        -1.214233        -0.071989         2.540764
 H        -0.866100         1.583030         2.918572
 H        -4.258565         0.945847         2.228671
 H        -2.012111        -0.919795         0.360481
 H        -2.480552         0.187909        -2.003060
 H        -3.709403         0.668922        -0.980908
 H        -1.493245         2.436339        -1.818013
 H        -3.087823         2.771577        -1.277222
 H        -1.530657         3.355062         0.818226
