19
Iteration:  2017
 O         0.507449         0.742824         0.177530
 C        -0.733077         0.937539         0.672458
 C        -1.208723         1.016089         2.065063
 C        -2.490705         1.309544         1.266316
 O        -3.869633         1.604636         1.636263
 C        -2.095179         0.204342         0.264047
 C        -2.632486         0.738026        -1.049636
 C        -2.280481         2.246024        -0.916895
 C        -1.656867         2.237094         0.405468
 H         0.792735        -0.104241         0.432076
 H        -0.986194         0.159444         2.726830
 H        -0.934688         1.928647         2.652522
 H        -4.259551         0.752774         1.961359
 H        -2.234231        -0.832475         0.545617
 H        -2.352584         0.231459        -2.012083
 H        -3.700000         0.609478        -0.865281
 H        -1.695183         2.687481        -1.688720
 H        -3.308838         2.703046        -0.815155
 H        -1.350369         3.222702         0.860162
