19
Iteration:   512
 O         0.434948         0.858161         0.084136
 C        -0.799577         1.031773         0.720952
 C        -1.244572         0.919036         2.140707
 C        -2.537120         1.221061         1.271767
 O        -3.787143         1.546826         1.815603
 C        -2.167803         0.213685         0.270403
 C        -2.592218         0.708576        -1.162958
 C        -2.145292         2.181098        -1.017471
 C        -1.727650         2.231907         0.460976
 H         0.554431        -0.165937        -0.110365
 H        -1.272064        -0.066408         2.621410
 H        -0.922206         1.639691         2.921834
 H        -3.709021         2.537332         2.090717
 H        -2.124216        -0.810318         0.442168
 H        -2.182609         0.185079        -2.031745
 H        -3.684490         0.617927        -1.299607
 H        -1.244314         2.450110        -1.579421
 H        -2.902413         2.936429        -1.174612
 H        -1.309794         3.284310         0.820153
