19
Iteration:  1809
 O         0.426064         0.816426         0.125706
 C        -0.806981         1.069549         0.627606
 C        -1.245747         0.906420         2.120613
 C        -2.550301         1.339337         1.299589
 O        -3.776922         1.670227         1.807491
 C        -2.185476         0.263947         0.259874
 C        -2.504214         0.615410        -1.218642
 C        -2.247859         2.135041        -0.955359
 C        -1.609180         2.246809         0.400702
 H         0.725423         0.019790         0.740015
 H        -1.212181        -0.104995         2.421534
 H        -0.916195         1.456842         2.912185
 H        -4.153582         0.931570         2.497800
 H        -2.267515        -0.660680         0.755918
 H        -1.944037        -0.022441        -1.918896
 H        -3.518962         0.398564        -1.510938
 H        -1.769723         2.621664        -1.708593
 H        -3.240923         2.587240        -0.885263
 H        -1.288510         3.257644         0.653028
