19
Iteration:   839
 O         0.453671         0.813142         0.030075
 C        -0.804656         0.870164         0.658845
 C        -1.258011         0.871910         2.169021
 C        -2.515908         1.394823         1.375005
 O        -3.825361         1.530398         1.826124
 C        -2.205101         0.285087         0.266524
 C        -2.585829         0.689318        -1.194883
 C        -2.195805         2.318062        -0.976940
 C        -1.604447         2.280985         0.425816
 H         1.052212         0.170592         0.530749
 H        -1.465931        -0.047568         2.658730
 H        -0.709094         1.577194         2.839200
 H        -4.267909         0.763190         1.693761
 H        -2.347063        -0.749217         0.549767
 H        -1.914529         0.185156        -1.871661
 H        -3.606738         0.579333        -1.452614
 H        -1.490966         2.640825        -1.757058
 H        -3.201054         2.894451        -0.959458
 H        -1.066163         3.148138         0.695399
