19
Iteration:  2120charge 0 multiplicity 1
 O         0.437660         0.765286         0.060907
 C        -0.796314         0.974981         0.632042
 C        -1.314186         0.910012         2.138528
 C        -2.499499         1.359850         1.301715
 O        -3.830066         1.636889         1.802458
 C        -2.108924         0.191065         0.328820
 C        -2.410568         0.699068        -1.079244
 C        -2.290118         2.255724        -0.996628
 C        -1.708020         2.290314         0.344312
 H         0.740861        -0.236238         0.205473
 H        -1.402315        -0.137099         2.357652
 H        -1.032403         1.613974         2.887022
 H        -4.193708         1.078897         2.559134
 H        -2.243637        -0.859079         0.658528
 H        -1.585663         0.225136        -1.715874
 H        -3.442400         0.212360        -1.429996
 H        -1.481470         2.612450        -1.777045
 H        -3.203890         2.862941        -1.088797
 H        -1.345757         3.207576         0.798567
