19
Iteration:   490
 O         0.501777         0.752374         0.133646
 C        -0.891076         0.953452         0.592068
 C        -1.235583         0.933480         2.154298
 C        -2.597555         1.295006         1.433515
 O        -3.861244         1.561821         1.952656
 C        -2.066152         0.216453         0.126477
 C        -2.521479         0.735149        -1.200804
 C        -2.215726         2.231023        -1.139867
 C        -1.715275         2.263659         0.403758
 H         0.861870         0.071021         0.621099
 H        -1.191203         0.001801         2.735349
 H        -0.768505         1.719838         2.790744
 H        -3.761421         2.234126         2.577229
 H        -2.221799        -0.789314         0.341285
 H        -1.896903         0.312072        -1.995696
 H        -3.562353         0.471803        -1.472859
 H        -1.415280         2.538561        -1.835372
 H        -3.103501         2.820489        -1.246844
 H        -1.281200         3.226128         0.976971
