19
Iteration:  1009
 O         0.337164         0.767761         0.191361
 C        -0.843220         1.018429         0.691850
 C        -1.251624         0.824835         2.133679
 C        -2.452614         1.315446         1.351018
 O        -3.716742         1.556562         1.792423
 C        -2.145745         0.312147         0.220775
 C        -2.588553         0.793012        -1.125558
 C        -2.237646         2.232049        -1.054483
 C        -1.638588         2.281369         0.370288
 H         0.916875        -0.034142         0.418502
 H        -1.245731        -0.222954         2.669584
 H        -0.704630         1.384546         2.863893
 H        -4.151212         0.773822         1.693094
 H        -2.210008        -0.796999         0.367208
 H        -2.117391         0.232142        -1.923770
 H        -3.649411         0.659625        -1.358147
 H        -1.544482         2.503513        -1.839157
 H        -3.091019         2.870684        -1.093645
 H        -1.235215         3.299247         0.722456
