19
Iteration:   462charge 0 multiplicity 1
 O         0.440968         0.682959         0.177900
 C        -0.876246         1.019226         0.626684
 C        -1.295179         0.981903         2.132141
 C        -2.510821         1.312859         1.248179
 O        -3.677392         1.448408         1.839946
 C        -2.262524         0.260348         0.229893
 C        -2.526191         0.718433        -1.161550
 C        -2.280407         2.238357        -1.035980
 C        -1.586272         2.309781         0.354085
 H         0.974102         0.570682         0.955488
 H        -1.309059        -0.008316         2.619979
 H        -0.995696         1.701715         2.905273
 H        -3.540188         1.854339         2.750099
 H        -2.685658        -0.708656         0.681225
 H        -1.738286         0.345839        -1.863775
 H        -3.357703         0.440188        -1.784528
 H        -1.821290         2.754378        -1.934234
 H        -3.231650         2.842311        -0.893145
 H        -1.458408         3.181739         0.856070
