19
Iteration:  3386charge 0 multiplicity 1
 O         0.447138         0.710169         0.068224
 C        -0.820614         1.034588         0.701524
 C        -1.356914         0.870721         2.202609
 C        -2.542692         1.283214         1.337458
 O        -3.756588         1.681276         1.797350
 C        -2.052811         0.119508         0.195543
 C        -2.534264         0.702163        -1.134983
 C        -2.223315         2.242195        -0.952980
 C        -1.651293         2.260491         0.456030
 H         0.763820         1.577127        -0.233369
 H        -1.387149        -0.106757         2.645034
 H        -1.300343         1.594234         3.047767
 H        -4.366725         1.539415         1.154473
 H        -1.862271        -0.938068         0.273008
 H        -1.991862         0.211994        -1.938903
 H        -3.631371         0.516992        -1.187431
 H        -1.531069         2.400356        -1.745169
 H        -3.086599         2.835434        -1.349416
 H        -1.466882         3.124010         1.137084
