19
Iteration:  1626
 O         0.389140         0.731895         0.068000
 C        -0.829267         0.983474         0.690352
 C        -1.216918         0.985049         2.113666
 C        -2.621272         1.371268         1.279886
 O        -3.804164         1.676301         1.941408
 C        -2.143448         0.196256         0.225025
 C        -2.428291         0.620913        -1.224625
 C        -2.199373         2.174677        -1.055163
 C        -1.746359         2.279667         0.446322
 H         1.115683         0.532715         0.676120
 H        -1.078817        -0.043806         2.543708
 H        -0.760635         1.597373         2.844561
 H        -4.010305         1.038155         2.534979
 H        -2.205226        -0.913992         0.497752
 H        -1.679392         0.236158        -1.910724
 H        -3.459549         0.355136        -1.563108
 H        -1.441467         2.560114        -1.819370
 H        -3.170449         2.746083        -1.179316
 H        -1.458403         3.208078         0.824532
