19
Iteration:  4617charge 0 multiplicity 1
 O         0.411979         0.883221         0.132436
 C        -0.802597         0.977485         0.780564
 C        -1.190344         1.051002         2.211280
 C        -2.574455         1.344293         1.280771
 O        -3.858461         1.613910         1.634517
 C        -2.054923         0.195189         0.408781
 C        -2.486661         0.514658        -1.046091
 C        -2.209939         2.002255        -1.078325
 C        -1.705958         2.280159         0.343642
 H         0.164228         0.728520        -0.744651
 H        -0.958195         0.060344         2.731431
 H        -0.888902         1.921900         2.758710
 H        -4.048543         2.551773         1.912348
 H        -2.205707        -0.684918         0.992430
 H        -2.009885        -0.211924        -1.803861
 H        -3.563360         0.366214        -1.167148
 H        -1.536249         2.355644        -1.908366
 H        -3.067474         2.557596        -1.387169
 H        -1.442326         3.193652         0.847759
