19
Iteration:  1578
 O         0.402196         0.669945         0.043925
 C        -0.765624         1.020147         0.674646
 C        -1.212768         0.898630         2.125999
 C        -2.538993         1.389002         1.300793
 O        -3.897933         1.666914         1.852992
 C        -2.099968         0.218971         0.273187
 C        -2.488537         0.649120        -1.140570
 C        -2.196927         2.152189        -1.008236
 C        -1.701603         2.277302         0.391114
 H         1.033379         1.325657         0.540689
 H        -1.284298         0.016494         2.800712
 H        -0.744741         1.614557         2.848210
 H        -4.160643         0.730483         2.286793
 H        -2.137199        -0.775175         0.467200
 H        -2.023405         0.264033        -2.069902
 H        -3.550510         0.674603        -1.237288
 H        -1.505614         2.598158        -1.681139
 H        -3.129880         2.731988        -1.042239
 H        -1.515421         3.338388         0.635955
