19
Iteration:  4153charge 0 multiplicity 1
 O         0.416505         0.727056         0.178545
 C        -0.787761         1.050729         0.674419
 C        -1.313329         0.962843         2.127892
 C        -2.541460         1.394506         1.337310
 O        -3.767298         1.592779         1.899082
 C        -2.073628         0.237807         0.292581
 C        -2.553133         0.602107        -1.195674
 C        -2.240716         2.121685        -1.172501
 C        -1.665213         2.328159         0.358169
 H         1.112074         0.929499         0.876034
 H        -1.381661        -0.005470         2.616693
 H        -1.204082         1.751245         2.833222
 H        -4.288589         0.795861         2.010024
 H        -2.169667        -0.789819         0.658252
 H        -2.066295         0.090226        -1.977133
 H        -3.570520         0.293346        -1.426544
 H        -1.328182         2.351174        -1.725960
 H        -2.936990         2.898929        -1.503726
 H        -1.449668         3.372475         0.640172
