19
Iteration:  3399charge 0 multiplicity 1
 O         0.430559         0.712655         0.054996
 C        -0.789475         0.933144         0.656052
 C        -1.403288         0.892870         2.250439
 C        -2.505628         1.250740         1.288045
 O        -3.771617         1.672581         1.797905
 C        -1.955737         0.232565         0.206120
 C        -2.556873         0.727858        -1.087564
 C        -2.191916         2.203897        -0.985658
 C        -1.765484         2.248508         0.484392
 H         0.948633         1.551978        -0.064202
 H        -1.464055        -0.110169         2.705753
 H        -0.846558         1.626624         2.746947
 H        -4.564892         1.420986         1.103657
 H        -2.125868        -0.806890         0.486094
 H        -2.160075         0.276196        -2.043931
 H        -3.597793         0.436164        -1.190585
 H        -1.320012         2.518101        -1.499249
 H        -2.998161         2.953065        -1.049900
 H        -1.390830         3.264866         0.730716
