19
Iteration:   227
 O         0.381582         0.859215         0.176210
 C        -0.823960         0.883160         0.611777
 C        -1.231092         0.922845         2.072713
 C        -2.518146         1.372206         1.282433
 O        -3.835510         1.377399         1.770555
 C        -2.194409         0.256663         0.262156
 C        -2.591566         0.764663        -1.025789
 C        -2.181308         2.265319        -1.014199
 C        -1.579093         2.280350         0.426903
 H         0.804067        -0.064179         0.356238
 H        -1.280161        -0.126189         2.494695
 H        -0.654274         1.605662         2.681375
 H        -3.954461         2.415666         2.064101
 H        -2.428382        -0.752485         0.628583
 H        -1.933591         0.226292        -1.716887
 H        -3.579314         0.484635        -1.430176
 H        -1.345792         2.398739        -1.835639
 H        -2.948545         3.088574        -1.219125
 H        -0.989347         3.167274         0.745771
