19
Iteration:  1535charge 0 multiplicity 1
 O         0.501537         0.690478         0.197087
 C        -0.816080         0.937717         0.680974
 C        -1.204742         1.040795         2.145326
 C        -2.476738         1.261832         1.327838
 O        -3.794909         1.619012         1.606456
 C        -2.082212         0.159346         0.208157
 C        -2.719457         0.755978        -1.096541
 C        -2.264608         2.202787        -0.918305
 C        -1.637920         2.211023         0.395965
 H         0.977923         1.590803        -0.028043
 H        -1.115504         0.208888         2.923922
 H        -0.710494         1.864895         2.680318
 H        -4.229238         0.886440         2.010998
 H        -2.285969        -0.814911         0.489736
 H        -2.473433         0.168229        -1.986738
 H        -3.742400         0.880520        -0.783955
 H        -1.760827         2.694837        -1.757735
 H        -3.234013         2.790926        -0.821616
 H        -1.305131         3.110570         0.797098
