19
Iteration:   853
 O         0.597938         0.745329         0.059641
 C        -0.809653         0.961501         0.652610
 C        -1.264512         0.856151         2.163461
 C        -2.497105         1.347288         1.362583
 O        -3.897583         1.565013         1.859970
 C        -2.165340         0.263378         0.226188
 C        -2.603741         0.840699        -1.108483
 C        -2.254456         2.201854        -1.051694
 C        -1.643855         2.272183         0.384028
 H         1.110452         0.140286         0.583518
 H        -1.291117        -0.264577         2.526153
 H        -0.800892         1.663767         2.888611
 H        -4.233246         0.550341         1.763073
 H        -2.432854        -0.706270         0.518061
 H        -2.195530         0.345330        -1.995370
 H        -3.644981         0.690905        -1.180511
 H        -1.512725         2.632952        -1.739613
 H        -3.047197         2.938177        -1.179975
 H        -1.291637         3.308424         0.864707
