19
Iteration:  4018charge 0 multiplicity 1
 O         0.513661         0.759537         0.351600
 C        -0.859658         0.949537         0.660375
 C        -1.368778         0.969702         2.130710
 C        -2.556963         1.367362         1.273023
 O        -3.753754         1.473248         1.885010
 C        -2.048327         0.235475         0.179455
 C        -2.592067         0.760361        -1.193446
 C        -2.247226         2.216121        -1.116143
 C        -1.647312         2.256995         0.324275
 H         0.395790         0.040188        -0.231463
 H        -1.422709         0.028387         2.678255
 H        -0.730968         1.669978         2.652903
 H        -3.766836         2.027791         2.632066
 H        -2.238922        -0.811264         0.559165
 H        -2.079400         0.317915        -2.030447
 H        -3.655596         0.545864        -1.439898
 H        -1.413104         2.376370        -1.776789
 H        -3.096253         2.893301        -1.256002
 H        -1.303829         3.292968         0.643237
