19
Iteration:  2997charge 0 multiplicity 1
 O         0.498414         0.684571         0.153354
 C        -0.807257         1.102861         0.732537
 C        -1.282724         0.844993         2.191680
 C        -2.509521         1.274856         1.291708
 O        -3.751397         1.587202         1.812081
 C        -2.093756         0.196032         0.228793
 C        -2.533671         0.627140        -1.126433
 C        -2.247222         2.208477        -1.008982
 C        -1.768389         2.350543         0.427524
 H         0.524370         0.652882        -0.774497
 H        -1.460699        -0.135689         2.703826
 H        -1.056448         1.715380         2.875610
 H        -4.141670         2.432064         1.293708
 H        -1.999496        -0.880824         0.461910
 H        -1.947519         0.111128        -1.961718
 H        -3.579443         0.652381        -1.407826
 H        -1.477772         2.842731        -1.640443
 H        -3.249259         2.777441        -1.038209
 H        -1.646268         3.390282         0.520346
