19
Iteration:  1063charge 0 multiplicity 1
 O         0.398124         0.833565         0.171867
 C        -0.829401         0.946032         0.619169
 C        -1.215552         0.882971         2.203203
 C        -2.470655         1.261909         1.305758
 O        -3.704437         1.616811         1.647088
 C        -2.158531         0.216376         0.196206
 C        -2.734796         0.747103        -1.118942
 C        -2.226082         2.249833        -0.930712
 C        -1.582562         2.232371         0.457507
 H         1.044208         0.201278         0.659245
 H        -1.309025        -0.160350         2.648884
 H        -0.872878         1.743768         2.754495
 H        -4.187793         0.850528         1.818635
 H        -2.313424        -0.836141         0.459405
 H        -2.410132         0.252171        -2.026491
 H        -3.788723         0.790361        -1.127835
 H        -1.583498         2.625294        -1.758748
 H        -3.065687         2.963259        -0.956766
 H        -0.998160         3.106543         0.942286
