19
Iteration:  1540
 O         0.451057         0.710041         0.201120
 C        -0.803631         0.938238         0.677797
 C        -1.196589         0.997910         2.207910
 C        -2.441971         1.277316         1.322779
 O        -3.759339         1.611925         1.591355
 C        -2.096978         0.169766         0.231865
 C        -2.711519         0.763730        -1.089279
 C        -2.301601         2.219992        -0.939267
 C        -1.632811         2.225374         0.377515
 H         1.016022         1.398738        -0.042278
 H        -1.214895         0.103756         2.850151
 H        -0.786485         1.916297         2.659793
 H        -4.232449         0.796648         2.065994
 H        -2.147714        -0.983450         0.520849
 H        -2.459338         0.236055        -2.015775
 H        -3.840394         0.648881        -0.901966
 H        -1.656060         2.575690        -1.790375
 H        -3.144832         2.932747        -0.968079
 H        -1.374731         3.285551         0.774352
