19
Iteration:  3092charge 0 multiplicity 1
 O         0.505377         0.666245         0.313081
 C        -0.813421         0.980054         0.677148
 C        -1.210179         0.948574         2.159038
 C        -2.472125         1.270638         1.302903
 O        -3.812102         1.566380         1.726924
 C        -2.136683         0.252068         0.145644
 C        -2.635639         0.783262        -1.131258
 C        -2.215557         2.221569        -1.021101
 C        -1.777913         2.312323         0.391121
 H         0.756340         1.027756        -0.596932
 H        -1.221211         0.032022         2.715350
 H        -0.747872         1.736151         2.760959
 H        -3.778158         1.048050         2.481126
 H        -2.165739        -0.832690         0.333044
 H        -2.270979         0.258736        -2.002173
 H        -3.736739         0.576181        -1.144669
 H        -1.409649         2.339103        -1.709624
 H        -3.063598         2.830262        -1.270679
 H        -1.317418         3.214315         0.824727
