19
Iteration:  3948charge 0 multiplicity 1
 O         0.438626         0.858939        -0.060992
 C        -0.798718         0.981781         0.747783
 C        -1.394453         0.945832         2.250841
 C        -2.543678         1.208061         1.270995
 O        -3.790186         1.637261         1.738523
 C        -2.119147         0.184573         0.334441
 C        -2.545546         0.739558        -1.102803
 C        -2.131905         2.215038        -0.965556
 C        -1.605960         2.200968         0.476231
 H         0.588044        -0.146053         0.014232
 H        -1.377271        -0.017156         2.835016
 H        -1.047697         1.758717         3.002697
 H        -4.408143         1.603167         1.025003
 H        -2.055473        -0.864460         0.497501
 H        -2.039686         0.348673        -2.061822
 H        -3.593530         0.520042        -1.236932
 H        -1.433630         2.375350        -1.833842
 H        -3.007069         2.847272        -0.799200
 H        -1.323935         3.108085         0.881899
