19
Iteration:   999
 O         0.350014         0.785130         0.138098
 C        -0.871844         0.949355         0.713696
 C        -1.220343         0.864760         2.210865
 C        -2.467103         1.375378         1.349629
 O        -3.727950         1.520638         1.848246
 C        -2.173911         0.231190         0.230310
 C        -2.542254         0.743720        -1.194529
 C        -2.238809         2.336921        -1.084694
 C        -1.597003         2.312563         0.343247
 H         0.573379        -0.138236         0.384824
 H        -1.513883        -0.275664         2.406105
 H        -0.912443         1.514151         3.001862
 H        -4.193167         0.755752         1.956328
 H        -2.289669        -0.883934         0.513928
 H        -1.853796         0.260882        -1.876937
 H        -3.633916         0.534206        -1.426143
 H        -1.531044         2.678423        -1.798117
 H        -3.141206         2.850216        -1.203220
 H        -1.119287         3.232089         0.747716
