19
Iteration:  3359
 O         0.506627         0.728819         0.216062
 C        -0.880654         0.905230         0.643534
 C        -1.226111         0.867644         2.115099
 C        -2.558004         1.430671         1.372204
 O        -3.786436         1.530779         1.841453
 C        -2.207615         0.268173         0.202326
 C        -2.497089         0.731669        -1.158534
 C        -2.240962         2.228817        -0.967106
 C        -1.672110         2.204644         0.385029
 H         0.719964         1.616218        -0.177906
 H        -1.225039        -0.030512         2.793790
 H        -0.730975         1.709930         2.636152
 H        -4.359934         1.836259         1.212353
 H        -2.427520        -0.817394         0.355857
 H        -1.711815         0.213871        -1.771209
 H        -3.477119         0.399544        -1.530482
 H        -1.559751         2.584264        -1.807664
 H        -3.157925         2.741459        -1.153131
 H        -1.201558         3.116724         0.732525
