19
Iteration:  1002charge 0 multiplicity 1
 O         0.318412         0.786637         0.164117
 C        -0.852455         0.974483         0.715797
 C        -1.222449         0.841620         2.187949
 C        -2.457686         1.371899         1.360597
 O        -3.709160         1.525297         1.825800
 C        -2.167365         0.246262         0.221858
 C        -2.555736         0.762492        -1.175134
 C        -2.240632         2.316708        -1.081277
 C        -1.599916         2.309589         0.339611
 H         0.711947        -0.179582         0.396580
 H        -1.452197        -0.219651         2.471105
 H        -0.847294         1.474905         3.041866
 H        -4.279168         0.704629         1.900624
 H        -2.253617        -0.876880         0.447243
 H        -1.888694         0.213495        -1.881107
 H        -3.691656         0.580642        -1.411117
 H        -1.503937         2.604205        -1.824086
 H        -3.206360         2.844445        -1.191295
 H        -1.179747         3.174575         0.689352
