19
Iteration:  3986charge 0 multiplicity 1
 O         0.517264         0.751780         0.194641
 C        -0.814095         1.045993         0.682331
 C        -1.215428         0.941780         2.110192
 C        -2.596842         1.322675         1.340090
 O        -3.852864         1.463686         1.852941
 C        -2.208304         0.249227         0.290031
 C        -2.550013         0.726930        -1.137999
 C        -2.113969         2.207615        -1.078743
 C        -1.705931         2.279840         0.397527
 H         0.446516        -0.173382        -0.336030
 H        -1.163077        -0.041699         2.581961
 H        -0.629052         1.696340         2.580183
 H        -4.316211         2.328128         1.553813
 H        -2.351208        -0.858879         0.534013
 H        -1.950997         0.159503        -1.844634
 H        -3.565530         0.519358        -1.636119
 H        -1.311832         2.535359        -1.710781
 H        -2.850563         2.986344        -1.360620
 H        -1.483164         3.284807         0.956579
