19
Iteration:  4178charge 0 multiplicity 1
 O         0.493144         0.821790         0.105866
 C        -0.818353         1.010335         0.649717
 C        -1.278931         1.037068         2.163950
 C        -2.566578         1.361631         1.314938
 O        -3.819266         1.567691         1.839268
 C        -2.144580         0.111472         0.336939
 C        -2.516736         0.613991        -1.074747
 C        -2.191680         2.152330        -1.088298
 C        -1.673811         2.270462         0.349019
 H         0.906153         0.258143         0.705240
 H        -1.219701         0.121994         2.747142
 H        -0.856194         1.933914         2.725510
 H        -4.461871         1.802138         1.176100
 H        -2.312363        -0.960764         0.539270
 H        -2.071878        -0.018399        -1.924098
 H        -3.554219         0.479001        -1.372420
 H        -1.419233         2.640409        -1.783311
 H        -3.105268         2.772382        -1.179852
 H        -1.396769         3.227918         0.737930
