19
Iteration:  4248charge 0 multiplicity 1
 O         0.498610         0.731478         0.291587
 C        -0.807918         1.045640         0.680160
 C        -1.242223         1.071604         2.156030
 C        -2.455118         1.388425         1.332378
 O        -3.810693         1.616851         1.736419
 C        -2.106734         0.207061         0.317544
 C        -2.573563         0.568675        -1.111893
 C        -2.283180         2.081410        -1.082173
 C        -1.682895         2.333541         0.300713
 H         0.496917         0.683536        -0.619859
 H        -1.373156         0.061519         2.666871
 H        -0.982394         1.883483         2.825443
 H        -4.099714         0.719945         1.998416
 H        -2.018937        -0.825754         0.696376
 H        -2.162438         0.047239        -1.980201
 H        -3.660356         0.333492        -1.317650
 H        -1.680721         2.308528        -1.950061
 H        -3.259169         2.644525        -1.190606
 H        -1.439408         3.396287         0.627485
