19
Iteration:  4126
 O         0.444888         0.676743         0.247346
 C        -0.818091         0.924593         0.664941
 C        -1.201035         1.071458         2.069191
 C        -2.569641         1.308686         1.303556
 O        -3.824016         1.549678         1.807651
 C        -2.115694         0.251757         0.265350
 C        -2.509256         0.720616        -1.156492
 C        -2.179826         2.133057        -1.091138
 C        -1.750456         2.220634         0.385638
 H         0.919586         1.549114         0.139743
 H        -1.327248         0.189569         2.746171
 H        -0.943769         2.024445         2.637954
 H        -3.879338         1.739624         2.735890
 H        -2.299810        -0.836199         0.461027
 H        -1.979888         0.068456        -1.946117
 H        -3.603328         0.524427        -1.329632
 H        -1.459544         2.632063        -1.763421
 H        -3.031167         2.814539        -1.305827
 H        -1.601592         3.263016         0.759807
