19
Iteration:   567
 O         0.483871         0.721453         0.159952
 C        -0.732189         1.031453         0.644927
 C        -1.215209         0.960168         2.117948
 C        -2.489457         1.266804         1.322461
 O        -3.834966         1.457131         1.640599
 C        -2.149494         0.186338         0.239924
 C        -2.665049         0.732177        -1.027247
 C        -2.235910         2.255974        -0.977802
 C        -1.677575         2.337276         0.472279
 H         0.531359        -0.138266        -0.343203
 H        -1.070690         0.038702         2.658090
 H        -0.841169         1.840292         2.696677
 H        -3.871249         2.336371         2.236833
 H        -2.210493        -0.822086         0.438451
 H        -2.298013         0.235351        -1.932211
 H        -3.751326         0.665683        -0.977982
 H        -1.389461         2.514927        -1.597049
 H        -2.992450         2.998617        -1.139044
 H        -1.508724         3.397840         0.946130
