19
Iteration:  1529charge 0 multiplicity 1
 O         0.569194         0.676019         0.188976
 C        -0.787045         0.926404         0.648459
 C        -1.212409         1.074587         2.108925
 C        -2.527810         1.259025         1.311480
 O        -3.838909         1.635285         1.632725
 C        -2.072771         0.186914         0.198388
 C        -2.709031         0.729766        -1.060760
 C        -2.255789         2.214145        -0.935101
 C        -1.638732         2.178485         0.440338
 H         0.751672         1.603664         0.081930
 H        -1.036834         0.215269         2.771977
 H        -0.748315         1.946004         2.613420
 H        -4.281690         0.893250         2.018392
 H        -2.413957        -0.921532         0.491291
 H        -2.563595         0.179574        -1.993416
 H        -3.832838         0.857710        -0.893749
 H        -1.742765         2.793355        -1.735513
 H        -3.212566         2.670514        -0.690305
 H        -1.151879         3.116412         0.949271
