19
Iteration:  3215charge 0 multiplicity 1
 O         0.479138         0.677966         0.304024
 C        -0.802354         1.008703         0.676710
 C        -1.223400         0.988236         2.061517
 C        -2.575673         1.295330         1.237542
 O        -3.779501         1.443832         1.890772
 C        -2.145338         0.274783         0.211114
 C        -2.562892         0.774117        -1.168124
 C        -2.258285         2.271821        -1.031892
 C        -1.642921         2.281942         0.401475
 H         0.421394         0.139347        -0.578171
 H        -1.448462        -0.007138         2.523959
 H        -0.840421         1.658880         2.834820
 H        -4.244697         1.934270         1.250510
 H        -2.288253        -0.750585         0.570856
 H        -1.922635         0.208682        -1.887246
 H        -3.596969         0.530456        -1.412888
 H        -1.440942         2.662979        -1.653723
 H        -3.041063         2.992815        -1.103094
 H        -1.257541         3.112666         0.999545
