19
Iteration:  1395charge 0 multiplicity 1
 O         0.595127         0.646522         0.097481
 C        -0.734407         0.962242         0.760841
 C        -1.260455         0.933470         2.159390
 C        -2.474556         1.358044         1.254014
 O        -3.807777         1.615614         1.757510
 C        -2.060585         0.259625         0.243028
 C        -2.727717         0.694208        -1.091534
 C        -2.328844         2.179028        -1.028053
 C        -1.713131         2.349492         0.406195
 H         1.251296         1.276760         0.550715
 H        -1.292098        -0.088427         2.584421
 H        -0.994502         1.562922         2.857341
 H        -4.241594         0.737192         1.848017
 H        -2.215585        -0.873940         0.542831
 H        -2.296579         0.201207        -1.938519
 H        -3.830651         0.668838        -1.024464
 H        -1.628235         2.408882        -1.863260
 H        -3.177960         2.911801        -1.108354
 H        -1.567459         3.342052         0.729692
