19
Iteration:  1174
 O         0.466816         0.663006         0.180279
 C        -0.819313         0.979163         0.633893
 C        -1.292641         0.848203         2.104017
 C        -2.530091         1.301097         1.348932
 O        -3.792303         1.648489         1.791308
 C        -2.066767         0.249130         0.191834
 C        -2.568244         0.692156        -1.076156
 C        -2.242805         2.255307        -1.025277
 C        -1.660025         2.327790         0.436331
 H         0.857897         1.454937        -0.180496
 H        -1.214676        -0.273538         2.509742
 H        -0.879825         1.605511         2.736267
 H        -4.292641         0.787778         2.157415
 H        -2.245759        -0.859514         0.385831
 H        -2.263078         0.244534        -1.997104
 H        -3.641797         0.645848        -1.130339
 H        -1.534609         2.551189        -1.824479
 H        -3.120421         2.919438        -1.077198
 H        -1.295037         3.279755         0.824133
