19
Iteration:    27
 O         0.469992         0.708188         0.050616
 C        -0.803478         0.975022         0.664396
 C        -1.206100         0.900851         2.089991
 C        -2.609688         1.229574         1.348928
 O        -3.902224         1.481936         1.834122
 C        -2.144279         0.232028         0.162906
 C        -2.564229         0.794316        -1.165531
 C        -2.079997         2.297159        -0.980524
 C        -1.775023         2.290640         0.501795
 H         1.000547         0.670085         0.769003
 H        -1.019394        -0.070387         2.551548
 H        -0.910796         1.610760         2.906283
 H        -3.922951         2.374924         2.004459
 H        -2.161077        -0.887005         0.384234
 H        -2.162668         0.261279        -2.028451
 H        -3.660441         0.736173        -1.114940
 H        -0.969995         2.422894        -1.436102
 H        -2.705654         3.140935        -1.401195
 H        -1.388443         3.227534         1.047551
