19
Iteration:  1474charge 0 multiplicity 1
 O         0.357699         0.661682         0.051685
 C        -0.840347         1.059559         0.665504
 C        -1.292753         0.903564         2.126394
 C        -2.554951         1.333901         1.297621
 O        -3.792775         1.671741         1.912166
 C        -2.062893         0.219785         0.235286
 C        -2.439242         0.604053        -1.138072
 C        -2.242305         2.213134        -1.019610
 C        -1.686048         2.310141         0.392473
 H         1.042343         1.323279         0.417487
 H        -1.395793        -0.095198         2.536418
 H        -0.863657         1.649208         2.736230
 H        -4.066735         0.939832         2.359204
 H        -2.154646        -0.883934         0.599394
 H        -1.790528         0.160048        -1.914888
 H        -3.438107         0.368425        -1.505048
 H        -1.492817         2.519528        -1.768729
 H        -3.140895         2.814993        -1.144029
 H        -1.320553         3.315477         0.853732
