19
Iteration:  4205
 O         0.454366         0.866716         0.167979
 C        -0.823629         0.987732         0.712599
 C        -1.210386         1.095722         2.236310
 C        -2.530775         1.322377         1.339775
 O        -3.804264         1.571820         1.643429
 C        -2.097209         0.138120         0.263091
 C        -2.575413         0.608382        -1.081892
 C        -2.258237         2.096326        -1.034915
 C        -1.701025         2.211373         0.389259
 H         0.506117         0.001240        -0.157550
 H        -1.040514         0.236341         2.946205
 H        -0.672904         1.959454         2.590200
 H        -3.918714         2.497502         1.848335
 H        -2.243479        -0.944187         0.323754
 H        -1.995704         0.106493        -1.832503
 H        -3.650862         0.353519        -1.354938
 H        -1.487010         2.450818        -1.654233
 H        -3.161529         2.735927        -1.029219
 H        -1.377785         3.239859         0.756133
