19
Iteration:   221charge 0 multiplicity 1
 O         0.393678         0.868092         0.144913
 C        -0.884961         0.915400         0.610382
 C        -1.267488         0.914681         2.010011
 C        -2.519179         1.355819         1.297497
 O        -3.807400         1.376964         1.790488
 C        -2.233497         0.268985         0.336944
 C        -2.541234         0.761502        -1.052507
 C        -2.142703         2.261490        -1.010025
 C        -1.581824         2.247951         0.413293
 H         0.763948         0.030403         0.613235
 H        -1.202369        -0.100456         2.345773
 H        -0.772170         1.681707         2.684778
 H        -3.947875         2.294889         2.007180
 H        -2.402163        -0.745702         0.712262
 H        -1.950043         0.197810        -1.811647
 H        -3.604834         0.662690        -1.308027
 H        -1.397918         2.496587        -1.678719
 H        -2.870150         2.963439        -1.327729
 H        -0.953000         3.059549         0.836111
