19
Iteration:  3624charge 0 multiplicity 1
 O         0.448991         0.619973         0.200081
 C        -0.872519         1.010218         0.661297
 C        -1.223679         0.919908         2.114864
 C        -2.502068         1.245219         1.231623
 O        -3.769074         1.574223         1.925047
 C        -2.091081         0.219382         0.173466
 C        -2.562387         0.754549        -1.177270
 C        -2.166948         2.294891        -1.043166
 C        -1.791112         2.331223         0.453762
 H         1.210279         1.035645         0.695566
 H        -1.344727        -0.020282         2.575506
 H        -0.976578         1.723542         2.879064
 H        -4.641036         1.488169         1.353438
 H        -2.184123        -0.868580         0.224582
 H        -2.084895         0.190405        -1.973306
 H        -3.641524         0.550781        -1.241635
 H        -1.308506         2.475124        -1.742297
 H        -2.965554         2.952091        -1.402113
 H        -1.422621         3.230762         0.969004
