19
Iteration:   521charge 0 multiplicity 1
 O         0.421613         0.900880         0.087056
 C        -0.861529         0.964667         0.665052
 C        -1.261129         0.900790         2.119140
 C        -2.554033         1.301870         1.273673
 O        -3.752205         1.494719         1.746723
 C        -2.149542         0.248172         0.264476
 C        -2.606411         0.703606        -1.053120
 C        -2.113136         2.166382        -0.990553
 C        -1.663142         2.246671         0.477729
 H         0.540707        -0.029757        -0.382283
 H        -1.421381        -0.121601         2.584736
 H        -0.943935         1.753255         2.772171
 H        -3.762473         2.519872         1.913792
 H        -2.295598        -0.781027         0.681945
 H        -2.056824         0.164458        -1.816131
 H        -3.725304         0.673945        -1.115871
 H        -1.326016         2.367576        -1.679095
 H        -2.968098         2.794276        -1.154225
 H        -1.243953         3.118092         1.084293
