19
Iteration:   708charge 0 multiplicity 1
 O         0.423228         0.632443         0.183216
 C        -0.791725         0.988932         0.670405
 C        -1.290302         0.910524         2.175644
 C        -2.443569         1.279205         1.295166
 O        -3.738793         1.387671         1.733278
 C        -2.135466         0.294018         0.233089
 C        -2.731750         0.816256        -1.102951
 C        -2.237884         2.269913        -0.987664
 C        -1.634332         2.305842         0.398007
 H         0.913492         1.539602         0.003649
 H        -1.277168        -0.058024         2.710344
 H        -0.670568         1.656888         2.838544
 H        -3.901320         2.385306         1.813173
 H        -2.283777        -0.747961         0.348215
 H        -2.215984         0.302228        -1.898105
 H        -3.780711         0.638826        -1.210895
 H        -1.413663         2.413894        -1.662734
 H        -2.994143         3.076416        -1.195989
 H        -1.148990         3.249628         0.720319
