19
Iteration:   276
 O         0.460301         0.751840         0.219496
 C        -0.847299         0.930571         0.648002
 C        -1.270462         0.912069         2.115969
 C        -2.502357         1.335687         1.320829
 O        -3.788961         1.556198         1.655108
 C        -2.049951         0.183989         0.206940
 C        -2.552188         0.715769        -1.085266
 C        -2.341279         2.286485        -0.920321
 C        -1.641701         2.291621         0.420202
 H         0.341468        -0.013751        -0.299512
 H        -1.303587         0.005202         2.719438
 H        -0.681740         1.745029         2.664547
 H        -3.754335         1.904605         2.477212
 H        -1.810792        -0.888250         0.371834
 H        -2.110445         0.457074        -2.081209
 H        -3.596761         0.437864        -1.266170
 H        -1.711893         2.531615        -1.715880
 H        -3.236622         2.897874        -0.916123
 H        -1.412750         3.293727         0.883489
