19
Iteration:  1101
 O         0.524681         0.710439         0.091413
 C        -0.799974         0.968035         0.681640
 C        -1.271706         0.890532         2.163796
 C        -2.511756         1.243121         1.367623
 O        -3.908864         1.661333         1.877880
 C        -2.145026         0.280143         0.173197
 C        -2.482484         0.757722        -1.232058
 C        -2.222814         2.267028        -1.044847
 C        -1.688511         2.288450         0.459637
 H         0.448793        -0.285894        -0.181902
 H        -1.153225        -0.055879         2.656531
 H        -0.908038         1.666621         2.895326
 H        -4.094963         1.026725         2.677898
 H        -2.169109        -0.829297         0.375220
 H        -1.928998         0.163796        -2.003139
 H        -3.591111         0.517208        -1.448855
 H        -1.502454         2.723229        -1.708167
 H        -3.185617         2.777647        -1.131664
 H        -1.300040         3.192321         0.840213
