19
Iteration:  4716charge 0 multiplicity 1
 O         0.521465         0.861243         0.286304
 C        -0.826178         0.995216         0.661821
 C        -1.286277         1.067166         2.169584
 C        -2.509132         1.432118         1.339941
 O        -3.813572         1.578474         1.675441
 C        -2.107367         0.192199         0.404281
 C        -2.539986         0.561712        -1.036875
 C        -2.311639         2.017111        -1.183855
 C        -1.694148         2.266558         0.253919
 H         0.690359         0.422588        -0.532442
 H        -1.126672         0.079342         2.692667
 H        -0.814354         1.895297         2.677248
 H        -3.868019         1.682256         2.626973
 H        -2.152390        -0.815221         0.853006
 H        -2.081768        -0.052147        -1.857326
 H        -3.549204         0.258281        -1.239297
 H        -1.648345         2.486349        -2.009323
 H        -3.260259         2.576038        -1.136324
 H        -1.218986         3.226907         0.541496
