19
Iteration:  4484
 O         0.468290         0.875342         0.190572
 C        -0.822564         1.034496         0.703812
 C        -1.223053         1.010628         2.147053
 C        -2.512828         1.385912         1.291361
 O        -3.803625         1.611333         1.642746
 C        -2.182198         0.163244         0.485202
 C        -2.522243         0.501266        -1.045155
 C        -2.211571         2.018713        -1.146548
 C        -1.681764         2.287394         0.350631
 H         0.629753         0.966596        -0.792085
 H        -1.318684         0.047954         2.672108
 H        -0.875174         1.887595         2.713395
 H        -3.969956         2.365714         2.273280
 H        -2.317573        -0.769255         1.056102
 H        -2.066760        -0.255656        -1.748499
 H        -3.556706         0.317357        -1.279846
 H        -1.583671         2.322427        -1.974274
 H        -3.217378         2.398077        -1.047133
 H        -1.479431         3.287695         0.666621
