19
Iteration:  1362
 O         0.468156         0.721089         0.297339
 C        -0.798090         0.932069         0.682390
 C        -1.095348         1.019812         2.128033
 C        -2.521948         1.179876         1.307293
 O        -3.748101         1.613917         1.636688
 C        -2.187153         0.159539         0.211778
 C        -2.750957         0.733330        -1.039374
 C        -2.312456         2.259862        -1.015443
 C        -1.571841         2.265431         0.357956
 H         0.722614         1.585243         0.129672
 H        -0.758942         0.141644         2.717827
 H        -0.824270         1.875639         2.517415
 H        -4.311493         0.766208         2.008834
 H        -2.165933        -0.999669         0.435393
 H        -2.425128         0.374997        -1.970018
 H        -3.832325         0.679847        -1.204883
 H        -1.694936         2.637259        -1.843833
 H        -3.121716         3.005984        -0.856232
 H        -1.250662         3.142095         0.838650
