19
Iteration:  3283
 O         0.515273         0.792230         0.242336
 C        -0.753247         0.879748         0.642173
 C        -1.210033         0.952336         2.129761
 C        -2.541414         1.297604         1.340071
 O        -3.837866         1.511113         1.822092
 C        -2.276157         0.273126         0.273709
 C        -2.571378         0.794970        -1.140743
 C        -2.201806         2.228563        -1.020631
 C        -1.607200         2.257973         0.426716
 H         0.483719         0.660355        -0.698817
 H        -1.329203        -0.072715         2.618907
 H        -0.683312         1.642410         2.815217
 H        -4.469946         1.374752         0.985713
 H        -2.515843        -0.808994         0.348361
 H        -2.049129         0.167256        -1.904675
 H        -3.606975         0.726410        -1.497221
 H        -1.457647         2.519411        -1.821832
 H        -3.128950         2.751288        -1.183030
 H        -1.140811         3.150132         0.820800
