19
Iteration:  3856charge 0 multiplicity 1
 O         0.420143         0.706461         0.225119
 C        -0.875164         0.996288         0.630751
 C        -1.191803         0.942608         2.135518
 C        -2.537822         1.286959         1.323911
 O        -3.805167         1.517491         1.788267
 C        -2.124643         0.215927         0.150479
 C        -2.539628         0.734000        -1.165478
 C        -2.219801         2.329335        -1.057810
 C        -1.663120         2.270664         0.407317
 H         0.820203         0.032752         0.699437
 H        -1.240890        -0.048510         2.686048
 H        -0.855383         1.692314         2.833248
 H        -4.000917         1.940995         2.638820
 H        -2.197159        -0.847741         0.450460
 H        -1.933337         0.265115        -1.958750
 H        -3.664437         0.478145        -1.324610
 H        -1.473270         2.531560        -1.801740
 H        -3.132420         2.984852        -1.135646
 H        -1.339759         3.251151         0.903786
