19
Iteration:   198
 O         0.435086         0.783719         0.048239
 C        -0.768558         0.955399         0.719358
 C        -1.249579         0.920675         2.226139
 C        -2.535395         1.283858         1.317470
 O        -3.874502         1.459474         1.888766
 C        -2.159603         0.241948         0.155536
 C        -2.617133         0.760782        -1.209464
 C        -2.104255         2.221670        -1.072707
 C        -1.702287         2.282345         0.467306
 H         1.051324         0.462672         0.647874
 H        -1.299493        -0.030430         2.730286
 H        -0.789335         1.722717         2.885843
 H        -3.796600         2.396391         2.254450
 H        -2.295613        -0.794327         0.298665
 H        -1.998988         0.191867        -1.948015
 H        -3.675952         0.646948        -1.449548
 H        -1.280489         2.413486        -1.714819
 H        -2.764224         3.005132        -1.409653
 H        -1.485410         3.260884         0.776020
