19
Iteration:   499charge 0 multiplicity 1
 O         0.469278         0.790496         0.102573
 C        -0.797109         1.032891         0.651119
 C        -1.239497         0.905192         2.228278
 C        -2.527467         1.257204         1.425045
 O        -3.872498         1.585052         1.905313
 C        -2.107393         0.153325         0.135142
 C        -2.568836         0.721795        -1.230057
 C        -2.182722         2.246076        -1.078123
 C        -1.714757         2.245436         0.373111
 H         0.681606        -0.063939         0.323746
 H        -1.058070        -0.160818         2.620536
 H        -0.891718         1.787902         2.818549
 H        -3.768443         2.379284         2.375912
 H        -2.242544        -0.939022         0.425620
 H        -1.922932         0.246106        -1.977223
 H        -3.687352         0.622123        -1.336122
 H        -1.345567         2.393056        -1.701645
 H        -2.999847         2.888487        -1.361043
 H        -1.662888         3.269539         0.938792
