19
Iteration:  3790charge 0 multiplicity 1
 O         0.405665         0.863428         0.110711
 C        -0.854648         0.985462         0.703699
 C        -1.224387         0.934904         2.191994
 C        -2.521917         1.202989         1.280170
 O        -3.750240         1.584664         1.770612
 C        -2.146927         0.195382         0.214755
 C        -2.562257         0.739771        -1.154204
 C        -2.134619         2.194104        -0.953938
 C        -1.721436         2.214412         0.453824
 H         0.315825        -0.192044         0.025209
 H        -1.086426        -0.060088         2.715141
 H        -1.168439         1.695570         2.976624
 H        -4.010842         2.353761         1.145636
 H        -2.215171        -0.933732         0.191694
 H        -1.978209         0.316964        -1.962929
 H        -3.688752         0.731269        -1.130272
 H        -1.224605         2.375147        -1.518085
 H        -2.888245         3.007378        -1.226202
 H        -1.545260         3.107751         1.157329
