19
Iteration:  2477
 O         0.440600         0.845093         0.234338
 C        -0.820919         0.881020         0.672662
 C        -1.261332         1.011261         2.122063
 C        -2.523118         1.244194         1.260758
 O        -3.669476         1.725403         1.672295
 C        -2.168764         0.154670         0.226519
 C        -2.539061         0.672099        -1.150650
 C        -2.359231         2.250280        -0.916736
 C        -1.661474         2.200081         0.474931
 H         0.644523         0.174073        -0.496457
 H        -1.165572         0.063752         2.613506
 H        -0.810870         1.707363         2.782193
 H        -4.134711         1.001077         2.306206
 H        -2.427771        -0.909821         0.443945
 H        -1.675403         0.301572        -1.870024
 H        -3.533216         0.276062        -1.568253
 H        -1.831537         2.620178        -1.793626
 H        -3.317489         2.829691        -0.898220
 H        -1.076195         3.031610         1.010215
