19
Iteration:   486
 O         0.491910         0.750954         0.140576
 C        -0.889213         0.928202         0.604884
 C        -1.251773         0.953110         2.102859
 C        -2.585777         1.306258         1.386775
 O        -3.849293         1.542262         1.959661
 C        -2.088860         0.247060         0.157675
 C        -2.497514         0.735914        -1.201950
 C        -2.222507         2.226455        -1.122675
 C        -1.713662         2.273148         0.423668
 H         0.917731         0.067389         0.797960
 H        -1.259600        -0.005799         2.740228
 H        -0.721960         1.697630         2.733052
 H        -3.762610         2.265979         2.731516
 H        -2.180354        -0.919323         0.320568
 H        -1.947459         0.262385        -2.044175
 H        -3.519606         0.407569        -1.518805
 H        -1.525736         2.646024        -1.827807
 H        -3.119564         2.869193        -1.246595
 H        -1.177244         3.148909         0.801738
