19
Iteration:  4455charge 0 multiplicity 1
 O         0.477111         0.846110         0.180841
 C        -0.849654         1.021547         0.697633
 C        -1.231630         1.061486         2.176588
 C        -2.572510         1.347611         1.353627
 O        -3.858879         1.657612         1.799373
 C        -2.060184         0.124191         0.385927
 C        -2.551583         0.540748        -1.083894
 C        -2.194943         1.995737        -1.161916
 C        -1.718991         2.241388         0.341134
 H         0.597462         1.041402        -0.689983
 H        -1.185347         0.095456         2.748215
 H        -0.885949         1.964221         2.608160
 H        -4.057199         2.610772         1.736304
 H        -1.957000        -0.924827         0.693676
 H        -1.877922         0.009150        -1.775736
 H        -3.564768         0.128166        -1.304142
 H        -1.391630         2.157590        -2.032981
 H        -2.946902         2.723522        -1.487365
 H        -1.471965         3.314019         0.632390
