19
Iteration:  2207charge 0 multiplicity 1
 O         0.423884         0.902575         0.174854
 C        -0.829079         0.977543         0.618547
 C        -1.265110         0.833540         2.154501
 C        -2.518646         1.311283         1.322555
 O        -3.775671         1.643677         1.773562
 C        -2.113702         0.236239         0.272166
 C        -2.662424         0.734907        -1.057579
 C        -2.167171         2.167121        -1.098106
 C        -1.618937         2.242894         0.375139
 H         0.727891         0.124816         0.549158
 H        -1.286830        -0.204733         2.585207
 H        -0.746884         1.440580         2.894907
 H        -4.204045         0.794659         1.876004
 H        -2.070989        -0.848356         0.375041
 H        -2.233596         0.132278        -1.886243
 H        -3.803657         0.677933        -1.036621
 H        -1.282018         2.333357        -1.806710
 H        -3.065103         2.760329        -1.234378
 H        -1.304594         3.197997         0.769185
