19
Iteration:  3501charge 0 multiplicity 1
 O         0.408818         0.791265         0.182112
 C        -0.843870         0.876248         0.612386
 C        -1.179169         0.861651         2.137991
 C        -2.537580         1.298089         1.311811
 O        -3.787416         1.553597         1.855190
 C        -2.192803         0.310161         0.208811
 C        -2.520078         0.698203        -1.161021
 C        -2.243342         2.224972        -1.013074
 C        -1.627390         2.271539         0.434536
 H         1.030636         0.890665         0.909757
 H        -1.329194        -0.012833         2.790536
 H        -0.758381         1.713212         2.674304
 H        -4.303686         1.884291         1.129610
 H        -2.517330        -0.740060         0.451226
 H        -1.939926         0.248938        -1.989250
 H        -3.480282         0.525550        -1.590519
 H        -1.481689         2.610754        -1.745537
 H        -3.154808         2.783555        -1.034227
 H        -1.277049         3.256630         0.743458
