19
Iteration:  3953
 O         0.387135         0.851053        -0.037251
 C        -0.825104         0.998005         0.754630
 C        -1.419039         0.959026         2.276745
 C        -2.543178         1.254288         1.303036
 O        -3.752687         1.594989         1.750848
 C        -2.072776         0.152504         0.284936
 C        -2.549281         0.693685        -1.130468
 C        -2.104539         2.231414        -1.001010
 C        -1.586116         2.205628         0.476768
 H         0.540876        -0.097132        -0.161511
 H        -1.442933         0.121642         2.953712
 H        -0.950874         1.779277         2.796974
 H        -4.371468         1.736726         0.971370
 H        -2.172756        -0.978286         0.391557
 H        -2.057526         0.270869        -1.962318
 H        -3.683076         0.655650        -1.109314
 H        -1.442250         2.599513        -1.779955
 H        -3.021001         2.825410        -0.832808
 H        -1.344489         3.192829         1.047929
