19
Iteration:   593charge 0 multiplicity 1
 O         0.479184         0.687760         0.254532
 C        -0.762956         0.989582         0.680057
 C        -1.265393         0.989388         2.150008
 C        -2.487599         1.331882         1.306213
 O        -3.791327         1.436993         1.813705
 C        -2.109878         0.268088         0.167542
 C        -2.624172         0.790414        -1.169235
 C        -2.316825         2.250462        -1.082806
 C        -1.633967         2.269987         0.377255
 H         0.552551        -0.260128        -0.088341
 H        -1.133004         0.041292         2.699437
 H        -0.836114         1.789678         2.724218
 H        -3.713478         1.995114         2.684539
 H        -2.312477        -0.825616         0.412051
 H        -2.113865         0.292536        -2.037793
 H        -3.694067         0.535413        -1.300426
 H        -1.725491         2.773497        -1.928641
 H        -3.243404         2.929504        -0.943988
 H        -1.373295         3.225308         0.847530
