19
Iteration:  2908charge 0 multiplicity 1
 O         0.521833         0.737600         0.255615
 C        -0.762652         1.097985         0.673659
 C        -1.238160         0.905555         2.083689
 C        -2.523032         1.335428         1.365716
 O        -3.790657         1.657635         1.767852
 C        -2.091564         0.180130         0.207414
 C        -2.608611         0.687320        -1.124903
 C        -2.221011         2.139075        -1.079550
 C        -1.734425         2.255884         0.435620
 H         0.383389         0.771491        -0.677693
 H        -1.185641        -0.020763         2.677071
 H        -0.972845         1.692185         2.868314
 H        -4.436247         0.852972         2.079443
 H        -2.184604        -0.900514         0.508621
 H        -2.346561        -0.059624        -1.943936
 H        -3.704026         0.622574        -0.965531
 H        -1.428160         2.613087        -1.809564
 H        -3.101146         2.813553        -1.295574
 H        -1.558615         3.255047         0.757894
