19
Iteration:  2804
 O         0.520775         0.695906         0.270025
 C        -0.785011         0.938934         0.705253
 C        -1.271228         1.083107         2.174235
 C        -2.506398         1.372762         1.285440
 O        -3.807876         1.510329         1.783211
 C        -2.189610         0.250101         0.218677
 C        -2.621716         0.700608        -1.188666
 C        -2.270822         2.214006        -1.001157
 C        -1.609479         2.221143         0.344141
 H         0.535558         0.686028        -0.680333
 H        -0.995126         0.193904         2.776702
 H        -0.989106         2.043232         2.666850
 H        -4.123756         0.919693         2.418567
 H        -2.153837        -0.799792         0.475703
 H        -1.907170         0.324724        -1.901883
 H        -3.682286         0.506309        -1.561767
 H        -1.660334         2.639020        -1.777715
 H        -3.221664         2.749361        -0.986132
 H        -1.155192         3.241250         0.579178
