19
Iteration:   522
 O         0.419754         0.905062         0.087252
 C        -0.865828         0.954441         0.655144
 C        -1.268526         0.896345         2.122276
 C        -2.536223         1.310085         1.275789
 O        -3.760031         1.490350         1.741947
 C        -2.147188         0.241934         0.266035
 C        -2.607045         0.703361        -1.041332
 C        -2.111755         2.170277        -0.983228
 C        -1.654918         2.246709         0.473860
 H         0.534238        -0.002470        -0.397346
 H        -1.407639        -0.108841         2.584409
 H        -0.931447         1.754773         2.757672
 H        -3.806571         2.547451         1.916209
 H        -2.318668        -0.737110         0.670055
 H        -2.067547         0.151684        -1.804991
 H        -3.714908         0.663354        -1.116930
 H        -1.343972         2.368790        -1.714392
 H        -2.959123         2.790266        -1.186311
 H        -1.241311         3.141475         1.108918
