19
Iteration:  1224
 O         0.538231         0.749875         0.121026
 C        -0.768416         0.910785         0.590814
 C        -1.164750         0.896794         2.103952
 C        -2.529952         1.320247         1.274064
 O        -3.904669         1.624234         1.640239
 C        -2.079866         0.200774         0.287888
 C        -2.686844         0.728683        -0.987811
 C        -2.246915         2.287026        -0.951612
 C        -1.644357         2.264258         0.431806
 H         0.974973         0.403671         0.999273
 H        -1.262602        -0.043388         2.490427
 H        -0.714607         1.727337         2.738344
 H        -4.253077         0.868067         2.049963
 H        -2.161794        -0.819126         0.529223
 H        -2.486002         0.152823        -1.967570
 H        -3.799948         0.831937        -0.956866
 H        -1.484943         2.689032        -1.650248
 H        -3.180967         2.870691        -1.089765
 H        -1.311415         3.208621         0.984538
