19
Iteration:  2230
 O         0.486499         0.907276         0.044025
 C        -0.782872         0.951060         0.696197
 C        -1.263634         0.962181         2.158469
 C        -2.584267         1.277142         1.269888
 O        -3.770772         1.629635         1.848024
 C        -2.223159         0.159306         0.289026
 C        -2.645965         0.703220        -1.185609
 C        -2.072279         2.186436        -1.015107
 C        -1.722872         2.222751         0.459527
 H         0.947102         0.060953         0.422509
 H        -1.116768         0.068070         2.757360
 H        -0.844400         1.785750         2.747794
 H        -4.446972         0.940221         1.697441
 H        -2.402935        -0.878637         0.597850
 H        -2.129358         0.144887        -1.993359
 H        -3.803574         0.690871        -1.308853
 H        -1.033965         2.157001        -1.517518
 H        -2.752632         2.956904        -1.322873
 H        -1.328334         3.124816         0.885054
