19
Iteration:  2072charge 0 multiplicity 1
 O         0.478855         0.911708         0.095852
 C        -0.823116         0.920006         0.665720
 C        -1.249797         0.949459         2.153083
 C        -2.614505         1.280051         1.236424
 O        -3.801400         1.666375         1.897247
 C        -2.197680         0.155723         0.259851
 C        -2.589512         0.693905        -1.120647
 C        -2.078812         2.224493        -1.081753
 C        -1.711031         2.208034         0.444940
 H         0.734338         0.071465         0.222877
 H        -1.183569        -0.012691         2.744309
 H        -0.738455         1.867302         2.546960
 H        -4.325921         0.957261         2.140801
 H        -2.191982        -0.925689         0.339926
 H        -1.964501         0.195341        -1.899064
 H        -3.614738         0.362204        -1.211988
 H        -1.214059         2.264938        -1.693366
 H        -2.904220         2.920725        -1.499586
 H        -1.265788         3.059005         1.038183
