19
Iteration:  1148
 O         0.470149         0.662859         0.154029
 C        -0.830698         0.994239         0.659700
 C        -1.221545         0.884406         2.157244
 C        -2.538967         1.326908         1.325441
 O        -3.851863         1.615170         1.903620
 C        -2.222419         0.244869         0.243601
 C        -2.447747         0.700053        -1.230862
 C        -2.194321         2.274650        -1.061567
 C        -1.709859         2.284704         0.429339
 H         0.486784         0.843232        -0.755591
 H        -1.237095        -0.102042         2.565234
 H        -0.712361         1.555351         2.900504
 H        -3.946054         0.885414         2.641519
 H        -2.473018        -0.746361         0.490924
 H        -1.648809         0.333732        -1.972422
 H        -3.386809         0.502823        -1.771613
 H        -1.444195         2.653458        -1.864765
 H        -3.105930         2.973796        -1.009543
 H        -1.440686         3.308761         0.893942
