19
Iteration:   101
 O         0.416589         0.661861         0.258509
 C        -0.826626         1.029635         0.611534
 C        -1.241313         0.916073         2.162952
 C        -2.480642         1.181907         1.333915
 O        -3.744892         1.524563         1.679257
 C        -2.033840         0.221921         0.159981
 C        -2.586802         0.781744        -1.175759
 C        -2.310850         2.318423        -0.904785
 C        -1.755987         2.280407         0.475061
 H         0.294315         0.341839        -0.686990
 H        -0.954255        -0.010432         2.571436
 H        -0.950972         1.695261         2.905632
 H        -3.757550         2.514451         2.044451
 H        -2.027091        -0.840125         0.353126
 H        -1.938897         0.402431        -1.972046
 H        -3.609101         0.477801        -1.306763
 H        -1.469468         2.723716        -1.459937
 H        -3.137090         2.954099        -1.159452
 H        -1.365715         3.161529         1.063386
