19
Iteration:  4578
 O         0.547854         0.794357         0.246606
 C        -0.780133         0.996368         0.692731
 C        -1.239547         1.132159         2.151255
 C        -2.519091         1.348647         1.249930
 O        -3.903725         1.567549         1.779050
 C        -2.103911         0.202732         0.399029
 C        -2.476594         0.550108        -1.073816
 C        -2.302917         2.083331        -1.147801
 C        -1.710929         2.223423         0.319841
 H         0.531651         0.387854        -0.655682
 H        -1.207111         0.241614         2.792145
 H        -1.005179         2.141495         2.574814
 H        -3.717738         2.466398         2.091057
 H        -2.343075        -0.838294         0.735333
 H        -2.052156         0.086704        -1.936037
 H        -3.544079         0.202468        -1.269647
 H        -1.620083         2.399200        -1.948577
 H        -3.303426         2.562651        -1.191980
 H        -1.443670         3.288863         0.621066
