19
Iteration:   128charge 0 multiplicity 1
 O         0.551443         0.635421         0.176264
 C        -0.768532         0.899192         0.622325
 C        -1.263096         0.929891         2.231966
 C        -2.513616         1.352130         1.340240
 O        -3.886760         1.448495         1.688259
 C        -2.157383         0.255956         0.231309
 C        -2.556888         0.801477        -1.137391
 C        -2.310197         2.288451        -0.936359
 C        -1.596481         2.318817         0.365265
 H         0.685462         1.265522        -0.602700
 H        -1.428407        -0.112406         2.684596
 H        -0.676640         1.516374         2.935906
 H        -4.027085         2.167888         2.465121
 H        -2.213068        -0.865306         0.409361
 H        -1.891474         0.271835        -1.847131
 H        -3.606885         0.538793        -1.473048
 H        -1.902189         2.972801        -1.803799
 H        -3.351055         2.735128        -0.794744
 H        -1.225696         3.177149         0.892976
