19
Iteration:  3249
 O         0.481357         0.785441         0.174511
 C        -0.794481         0.944747         0.750857
 C        -1.294226         0.888458         2.143722
 C        -2.502247         1.282859         1.301240
 O        -3.789541         1.613493         1.791037
 C        -2.034910         0.197383         0.203144
 C        -2.590626         0.785248        -1.122779
 C        -2.206333         2.268497        -1.008736
 C        -1.700320         2.223841         0.461812
 H         0.531270         0.343595        -0.715440
 H        -1.571745        -0.121074         2.570828
 H        -0.885323         1.595062         2.870571
 H        -4.547254         1.394805         1.132538
 H        -2.303435        -0.868116         0.377373
 H        -2.255975         0.175213        -1.991059
 H        -3.673370         0.720256        -1.041388
 H        -1.414741         2.557892        -1.752242
 H        -3.086829         2.777941        -1.303848
 H        -1.373308         3.128999         0.973744
