19
Iteration:  3184
 O         0.492924         0.658190         0.269066
 C        -0.846714         0.918455         0.643016
 C        -1.254067         1.037941         2.173188
 C        -2.498814         1.359546         1.307567
 O        -3.852068         1.411493         1.891564
 C        -2.145693         0.267341         0.189065
 C        -2.515276         0.729629        -1.251658
 C        -2.283259         2.294079        -1.066359
 C        -1.618649         2.240654         0.421441
 H         0.391423         0.875276        -0.628892
 H        -1.510600         0.110525         2.770520
 H        -0.744525         1.731899         2.851409
 H        -4.072326         2.436600         1.896017
 H        -2.323672        -0.783332         0.435167
 H        -1.864106         0.290621        -2.064911
 H        -3.491506         0.453176        -1.617992
 H        -1.468352         2.738743        -1.682700
 H        -3.149095         2.917425        -0.961966
 H        -1.070410         3.102169         0.757546
