19
Iteration:  4669charge 0 multiplicity 1
 O         0.482812         0.697993         0.419788
 C        -0.794917         1.033286         0.664039
 C        -1.168413         1.257410         2.154536
 C        -2.477870         1.298665         1.278858
 O        -3.809100         1.473271         1.785047
 C        -2.078994         0.162993         0.306176
 C        -2.596709         0.571607        -1.076509
 C        -2.273376         2.124806        -1.187978
 C        -1.791432         2.275701         0.161371
 H         0.747009         1.013472        -0.376500
 H        -1.343761         0.319025         2.721655
 H        -0.792657         2.211308         2.610469
 H        -3.754829         2.334648         2.300832
 H        -2.123948        -0.859137         0.680033
 H        -2.341969        -0.037656        -1.895653
 H        -3.631219         0.398950        -1.125032
 H        -1.493266         2.431438        -1.914354
 H        -3.217890         2.789547        -1.319057
 H        -1.642919         3.126857         0.749648
