19
Iteration:  2806charge 0 multiplicity 1
 O         0.504149         0.688085         0.279264
 C        -0.767510         0.947351         0.711519
 C        -1.253801         1.080187         2.173343
 C        -2.495378         1.377403         1.288348
 O        -3.823623         1.515539         1.783089
 C        -2.191946         0.245876         0.200181
 C        -2.609922         0.675538        -1.187139
 C        -2.273119         2.208024        -1.003424
 C        -1.621279         2.239388         0.358599
 H         0.472512         0.645034        -0.735567
 H        -1.012776         0.177557         2.743695
 H        -0.950183         2.051631         2.592969
 H        -4.063679         0.891526         2.410902
 H        -2.145492        -0.817415         0.448900
 H        -1.892645         0.407683        -1.890112
 H        -3.681268         0.573022        -1.520331
 H        -1.687568         2.699948        -1.842077
 H        -3.201517         2.745282        -1.010440
 H        -1.168697         3.253052         0.624772
