19
Iteration:  3810
 O         0.415096         0.858537         0.004441
 C        -0.798368         0.915499         0.690517
 C        -1.358044         0.913964         2.217749
 C        -2.536538         1.245253         1.346071
 O        -3.892948         1.556321         1.773510
 C        -2.071853         0.160387         0.257653
 C        -2.556406         0.746972        -1.145397
 C        -2.112513         2.258163        -1.008682
 C        -1.642266         2.240389         0.500620
 H         0.763951        -0.026980        -0.261385
 H        -1.336350         0.048944         2.862217
 H        -0.796833         1.677758         2.775272
 H        -3.973657         2.520533         1.403966
 H        -2.004445        -0.901868         0.624374
 H        -2.001535         0.200994        -1.901221
 H        -3.692904         0.641364        -1.133561
 H        -1.302013         2.568544        -1.676239
 H        -2.986550         2.888026        -1.126775
 H        -1.119073         3.150118         0.991842
