19
Iteration:  3843
 O         0.412680         0.790956         0.138372
 C        -0.841531         1.006107         0.660118
 C        -1.254222         0.874493         2.144248
 C        -2.485823         1.278260         1.357551
 O        -3.821137         1.443049         1.707390
 C        -2.244012         0.292838         0.348607
 C        -2.567986         0.750637        -1.162394
 C        -2.178457         2.228055        -1.030900
 C        -1.603151         2.316437         0.392097
 H         0.595059        -0.119470         0.633022
 H        -1.189535        -0.141210         2.506196
 H        -0.777979         1.635290         2.767173
 H        -3.654182         2.261987         2.263466
 H        -2.216220        -0.806969         0.537715
 H        -1.817300         0.221315        -1.757738
 H        -3.596601         0.667756        -1.671117
 H        -1.484434         2.648439        -1.757827
 H        -3.049994         2.859452        -1.168512
 H        -1.177778         3.239510         0.907658
