19
Iteration:  2844charge 0 multiplicity 1
 O         0.517527         0.646782         0.180616
 C        -0.770015         1.091646         0.696779
 C        -1.260099         0.958175         2.124402
 C        -2.476143         1.251321         1.358186
 O        -3.806911         1.691347         1.765997
 C        -2.096928         0.217255         0.254139
 C        -2.497919         0.670374        -1.100432
 C        -2.328780         2.203028        -1.039475
 C        -1.797437         2.336296         0.409228
 H         0.171101         0.244701        -0.677896
 H        -1.280716         0.045302         2.719800
 H        -0.951744         1.719660         2.838335
 H        -4.054341         0.738212         2.006900
 H        -2.129646        -0.883185         0.404731
 H        -1.749395         0.286106        -1.914035
 H        -3.373166         0.303221        -1.612412
 H        -1.511606         2.477956        -1.727184
 H        -3.247533         2.850371        -1.165322
 H        -1.510693         3.254187         0.863723
