19
Iteration:  1697
 O         0.535659         0.822520         0.203162
 C        -0.802516         1.005453         0.724353
 C        -1.210280         1.034183         2.171360
 C        -2.470742         1.229478         1.404657
 O        -3.827036         1.660733         1.632632
 C        -2.066953         0.112702         0.221250
 C        -2.758741         0.768944        -1.058427
 C        -2.314136         2.221555        -1.037401
 C        -1.622671         2.157287         0.328041
 H         0.864762        -0.058560         0.203817
 H        -1.037775         0.092544         2.573241
 H        -0.697028         1.814957         2.784435
 H        -4.335572         0.928205         1.788176
 H        -2.035757        -1.029278         0.322630
 H        -2.397866         0.196528        -1.944674
 H        -3.813656         0.645570        -0.890471
 H        -1.626211         2.460647        -1.794652
 H        -3.126853         2.922259        -1.010052
 H        -1.177129         3.125300         0.855473
