19
Iteration:  2045
 O         0.483650         0.829003         0.112123
 C        -0.797098         1.055632         0.631516
 C        -1.314244         0.887554         2.247599
 C        -2.438985         1.409679         1.380863
 O        -3.772964         1.567541         1.714398
 C        -2.167553         0.242273         0.288427
 C        -2.682266         0.726222        -1.134844
 C        -2.199069         2.180415        -1.060242
 C        -1.674483         2.215085         0.374834
 H         0.627582         0.075849         0.559732
 H        -1.239585        -0.169571         2.497558
 H        -0.901058         1.542891         3.021459
 H        -4.028544         0.711350         1.936939
 H        -2.079857        -0.869654         0.426164
 H        -2.196526         0.178792        -1.920004
 H        -3.759606         0.555758        -0.968832
 H        -1.255216         2.339188        -1.679504
 H        -3.065362         2.748432        -1.195283
 H        -1.188056         3.130115         0.662885
