19
Iteration:   679
 O         0.409702         0.745944        -0.038593
 C        -0.810809         0.914303         0.670250
 C        -1.213885         0.881454         2.143928
 C        -2.555957         1.314366         1.286986
 O        -3.942112         1.489422         1.773991
 C        -2.124663         0.212716         0.314888
 C        -2.572168         0.738551        -1.041877
 C        -2.134428         2.292134        -0.962690
 C        -1.613167         2.282697         0.471827
 H         1.173278         1.088637         0.554539
 H        -1.211801        -0.128176         2.550960
 H        -0.649862         1.627734         2.647387
 H        -4.044877         2.388343         1.715043
 H        -2.346723        -0.832718         0.456256
 H        -2.057844         0.244356        -1.892762
 H        -3.670952         0.717210        -1.102526
 H        -1.324429         2.516386        -1.671716
 H        -3.002583         2.888445        -1.087067
 H        -1.054268         3.252282         0.768537
