19
Iteration:  1850charge 0 multiplicity 1
 O         0.571108         0.768914         0.212881
 C        -0.798455         0.986320         0.687184
 C        -1.201675         1.027650         2.185663
 C        -2.486218         1.215983         1.276272
 O        -3.804136         1.669458         1.675118
 C        -2.063482         0.166607         0.221687
 C        -2.746720         0.708214        -1.132673
 C        -2.308839         2.217585        -0.958674
 C        -1.668797         2.204983         0.377893
 H         0.832241        -0.128261         0.350508
 H        -0.939953         0.200589         2.841306
 H        -0.863929         2.022921         2.578220
 H        -4.310260         0.933593         1.754260
 H        -2.134079        -0.949150         0.470544
 H        -2.554041         0.308090        -2.126599
 H        -3.836710         0.668839        -1.066240
 H        -1.684101         2.750517        -1.667130
 H        -3.180114         2.866595        -0.772926
 H        -1.302917         3.163763         0.846965
