19
Iteration:  3005
 O         0.491358         0.695551         0.133308
 C        -0.749103         1.077308         0.724507
 C        -1.304174         0.888058         2.155993
 C        -2.532412         1.216340         1.332200
 O        -3.791045         1.637114         1.816763
 C        -2.104582         0.264122         0.301090
 C        -2.518915         0.619778        -1.176662
 C        -2.247028         2.224535        -0.974431
 C        -1.729793         2.288252         0.419568
 H         0.369478         0.639362        -0.815175
 H        -1.108956        -0.108651         2.577691
 H        -1.083303         1.620942         2.960316
 H        -4.240258         2.116075         1.036912
 H        -2.031773        -0.834566         0.436033
 H        -1.909752         0.275592        -2.006607
 H        -3.595136         0.455864        -1.460776
 H        -1.619253         2.670391        -1.763008
 H        -3.102470         2.794070        -1.174956
 H        -1.645086         3.278047         0.944723
