19
Iteration:  1223
 O         0.542591         0.751659         0.121885
 C        -0.771377         0.908205         0.584142
 C        -1.163491         0.900464         2.109123
 C        -2.532468         1.314428         1.273702
 O        -3.909925         1.625032         1.640298
 C        -2.082643         0.201911         0.279798
 C        -2.689687         0.731921        -0.987797
 C        -2.242927         2.289204        -0.950600
 C        -1.634107         2.261743         0.433164
 H         0.971934         0.443919         0.986306
 H        -1.243687        -0.066566         2.533425
 H        -0.700004         1.766602         2.743724
 H        -4.259397         0.894149         2.031679
 H        -2.177113        -0.840024         0.536405
 H        -2.502270         0.156473        -1.950053
 H        -3.817872         0.810466        -0.950070
 H        -1.507632         2.684906        -1.635327
 H        -3.173815         2.832278        -1.082063
 H        -1.308727         3.174738         0.988932
