19
Iteration:  4938
 O         0.523950         0.744645         0.297781
 C        -0.788821         1.084902         0.673148
 C        -1.244456         1.146919         2.119230
 C        -2.548903         1.384355         1.313314
 O        -3.813784         1.647660         1.835551
 C        -2.055800         0.172913         0.358192
 C        -2.490989         0.520155        -1.100439
 C        -2.281037         2.067250        -1.193482
 C        -1.819053         2.286392         0.236804
 H         0.612312         0.056234        -0.256859
 H        -1.174524         0.196689         2.575963
 H        -0.969857         1.956141         2.844538
 H        -4.151424         0.855780         2.268204
 H        -2.365060        -0.860680         0.632378
 H        -1.856817         0.125560        -1.862474
 H        -3.536776         0.222663        -1.084745
 H        -1.506652         2.321596        -1.946919
 H        -3.062370         2.781465        -1.370497
 H        -1.598735         3.298155         0.501062
