19
Iteration:  1089charge 0 multiplicity 1
 O         0.518080         0.729500         0.118747
 C        -0.772511         0.990007         0.593262
 C        -1.236225         0.788484         2.141237
 C        -2.562697         1.338536         1.335637
 O        -3.852928         1.623299         1.790664
 C        -2.117959         0.327912         0.263839
 C        -2.549193         0.759791        -1.098806
 C        -2.246477         2.235099        -1.031183
 C        -1.695471         2.296892         0.435841
 H         0.840070        -0.236183         0.147081
 H        -1.483363        -0.263146         2.389657
 H        -0.802498         1.451942         2.889317
 H        -4.104840         0.990069         2.371449
 H        -2.348836        -0.774324         0.515854
 H        -1.916953         0.300156        -1.870604
 H        -3.667620         0.619140        -1.313225
 H        -1.549402         2.542179        -1.753100
 H        -3.088923         2.885360        -1.137761
 H        -1.351226         3.185670         0.839188
