19
Iteration:  2127
 O         0.498610         0.730548         0.049636
 C        -0.791676         0.974509         0.636076
 C        -1.331937         0.944713         2.122092
 C        -2.516491         1.324955         1.347994
 O        -3.825939         1.615581         1.768501
 C        -2.119441         0.235108         0.347138
 C        -2.442243         0.702889        -1.116189
 C        -2.287953         2.214925        -0.979041
 C        -1.699628         2.310439         0.386835
 H         0.710450        -0.174125         0.249603
 H        -1.439174        -0.126562         2.565781
 H        -0.842957         1.553902         2.935537
 H        -4.219095         1.232623         2.524236
 H        -2.281503        -0.802103         0.618755
 H        -1.697308         0.399538        -1.874146
 H        -3.349865         0.286290        -1.499098
 H        -1.743871         2.680178        -1.762329
 H        -3.274315         2.757191        -1.138674
 H        -1.350052         3.347556         0.654910
