19
Iteration:   280
 O         0.439482         0.763124         0.240263
 C        -0.845423         0.929614         0.644728
 C        -1.248377         0.914890         2.122776
 C        -2.475701         1.376076         1.333258
 O        -3.789590         1.538368         1.647517
 C        -2.074107         0.193629         0.223034
 C        -2.546158         0.723006        -1.133292
 C        -2.358084         2.275480        -0.941362
 C        -1.634877         2.273702         0.438388
 H         0.455201        -0.026422        -0.393308
 H        -1.271938        -0.040837         2.704655
 H        -0.618591         1.592696         2.663294
 H        -3.897989         1.902737         2.625965
 H        -1.914737        -0.928819         0.436557
 H        -2.074827         0.368139        -2.062047
 H        -3.628100         0.485814        -1.299608
 H        -1.661429         2.598565        -1.753243
 H        -3.310815         2.818788        -0.865632
 H        -1.282012         3.344279         0.796179
