19
Iteration:    57charge 0 multiplicity 1
 O         0.433087         0.880445         0.108583
 C        -0.864069         0.938106         0.614621
 C        -1.383120         0.871480         2.122849
 C        -2.520331         1.333792         1.340181
 O        -3.761744         1.365782         1.825430
 C        -2.238054         0.224945         0.199675
 C        -2.611859         0.787441        -1.121393
 C        -2.115200         2.260834        -0.970363
 C        -1.507271         2.288964         0.407538
 H         0.853667         0.033200         0.608407
 H        -1.639805        -0.042991         2.608694
 H        -0.878737         1.518551         2.866458
 H        -4.084250         2.377566         1.816103
 H        -2.205819        -0.778137         0.506064
 H        -1.984719         0.293039        -1.866711
 H        -3.629324         0.640400        -1.411870
 H        -1.395367         2.487908        -1.770385
 H        -2.858665         3.050602        -1.015178
 H        -1.041392         3.183677         0.902487
