19
Iteration:  4405charge 0 multiplicity 1
 O         0.538724         0.711903         0.381741
 C        -0.811635         1.034848         0.630563
 C        -1.199496         1.187473         2.106951
 C        -2.511364         1.371627         1.351243
 O        -3.899202         1.492862         1.913771
 C        -2.104991         0.260684         0.348191
 C        -2.565000         0.543640        -1.074302
 C        -2.290265         2.110566        -1.206997
 C        -1.667845         2.292097         0.183730
 H         0.804680         0.445273        -0.610797
 H        -1.129167         0.178270         2.505409
 H        -0.666103         1.979178         2.732039
 H        -4.369577         1.868314         1.114122
 H        -2.199725        -0.781999         0.745195
 H        -2.054207        -0.176193        -1.723823
 H        -3.666372         0.333526        -1.065679
 H        -1.672862         2.495928        -1.984290
 H        -3.212040         2.659864        -1.513872
 H        -1.258137         3.283309         0.331004
