19
Iteration:  2842charge 0 multiplicity 1
 O         0.511691         0.638282         0.190071
 C        -0.761023         1.082748         0.690759
 C        -1.273051         0.962783         2.108572
 C        -2.469356         1.246037         1.372356
 O        -3.805950         1.679895         1.763448
 C        -2.094733         0.234560         0.256932
 C        -2.492011         0.662460        -1.081317
 C        -2.334246         2.210112        -1.041284
 C        -1.819675         2.331823         0.395948
 H         0.181774         0.228424        -0.686293
 H        -1.213629         0.033325         2.682915
 H        -0.959103         1.723092         2.821501
 H        -4.012347         0.834852         2.005581
 H        -2.066354        -0.876908         0.420356
 H        -1.763452         0.364752        -1.892289
 H        -3.376137         0.368860        -1.610194
 H        -1.461711         2.542329        -1.734253
 H        -3.210755         2.861391        -1.190900
 H        -1.478766         3.244164         0.820824
