19
Iteration:   616charge 0 multiplicity 1
 O         0.574041         0.746448         0.188194
 C        -0.803998         1.025354         0.548600
 C        -1.315060         0.951182         2.097368
 C        -2.588067         1.294217         1.375996
 O        -3.861865         1.468408         1.919362
 C        -2.296862         0.249079         0.226312
 C        -2.527393         0.745154        -1.180243
 C        -2.277416         2.249142        -1.021054
 C        -1.530522         2.308683         0.302544
 H         0.736188        -0.220502         0.287914
 H        -1.113296        -0.085669         2.504598
 H        -0.819346         1.606360         2.799415
 H        -3.729863         1.854946         2.718307
 H        -2.332749        -0.814596         0.709799
 H        -1.678082         0.288268        -1.758246
 H        -3.468375         0.463304        -1.749295
 H        -1.697113         2.749852        -1.905482
 H        -3.268799         2.909807        -0.881792
 H        -0.956523         3.112859         0.666683
