19
Iteration:  3124charge 0 multiplicity 1
 O         0.540092         0.824319         0.206234
 C        -0.816352         0.899004         0.668348
 C        -1.247577         0.908576         2.184338
 C        -2.497324         1.298096         1.257272
 O        -3.916321         1.598840         1.671955
 C        -2.223156         0.200843         0.224767
 C        -2.581414         0.712009        -1.093132
 C        -2.173636         2.228698        -0.943934
 C        -1.588617         2.212601         0.403696
 H         0.495240         1.117625        -0.743009
 H        -1.374817        -0.047949         2.649242
 H        -0.813676         1.739720         2.747354
 H        -3.697867         1.475953         2.669530
 H        -2.368181        -0.871716         0.451649
 H        -2.113223         0.159733        -1.893421
 H        -3.706981         0.668875        -1.083186
 H        -1.708675         2.695474        -1.784266
 H        -3.143246         2.793050        -0.919545
 H        -1.010418         3.152745         0.745923
