19
Iteration:  4954charge 0 multiplicity 1
 O         0.488082         0.807371         0.346851
 C        -0.823339         1.070640         0.649859
 C        -1.258824         1.138763         2.183315
 C        -2.530871         1.351478         1.275235
 O        -3.718184         1.630334         1.817899
 C        -2.092249         0.236464         0.284454
 C        -2.586467         0.527356        -1.108821
 C        -2.301674         2.038505        -1.187980
 C        -1.717920         2.289371         0.283264
 H         0.402543        -0.020964        -0.119680
 H        -1.249202         0.188922         2.828346
 H        -0.830593         1.945071         2.781431
 H        -4.238617         0.824638         1.826972
 H        -1.792802        -0.706150         0.754061
 H        -2.045234        -0.211109        -1.791291
 H        -3.636143         0.239122        -1.467559
 H        -1.469406         2.231959        -1.855556
 H        -3.302730         2.489215        -1.417300
 H        -1.415341         3.375076         0.589498
