19
Iteration:   320charge 0 multiplicity 1
 O         0.515803         0.707586         0.241753
 C        -0.791226         1.010007         0.623505
 C        -1.305816         0.964491         2.068941
 C        -2.529769         1.306204         1.279708
 O        -3.825482         1.494987         1.880961
 C        -2.200304         0.163002         0.212476
 C        -2.553371         0.749112        -1.136971
 C        -2.234046         2.250922        -0.997548
 C        -1.652116         2.283340         0.381785
 H         0.601198         0.769079        -0.703919
 H        -1.453804        -0.020861         2.549450
 H        -0.853958         1.747765         2.782416
 H        -3.791743         2.227843         2.479117
 H        -2.198462        -0.911911         0.494735
 H        -1.832710         0.299680        -1.880123
 H        -3.526872         0.482509        -1.582764
 H        -1.528555         2.582915        -1.722755
 H        -3.101680         2.901706        -1.153373
 H        -1.160400         3.121658         0.906966
