19
Iteration:  3302
 O         0.493901         0.621276         0.254619
 C        -0.883193         1.022711         0.687072
 C        -1.248157         0.914056         2.136710
 C        -2.539019         1.325385         1.295482
 O        -3.772053         1.512800         1.895072
 C        -2.024017         0.195249         0.205077
 C        -2.585874         0.718664        -1.184704
 C        -2.193521         2.343842        -1.028855
 C        -1.758669         2.331556         0.391785
 H         0.729758         0.844550        -0.683851
 H        -1.238631        -0.071714         2.658615
 H        -0.878363         1.760301         2.685578
 H        -4.547442         1.567527         1.185121
 H        -2.251939        -0.818234         0.595812
 H        -2.061162         0.267803        -2.073502
 H        -3.627915         0.435307        -1.361081
 H        -1.346355         2.539627        -1.724371
 H        -3.053903         2.985367        -1.224175
 H        -1.478980         3.294924         0.841272
