19
Iteration:  2157
 O         0.423644         0.750536         0.217086
 C        -0.820131         0.933123         0.670212
 C        -1.186219         1.054517         2.106968
 C        -2.513315         1.211451         1.301555
 O        -3.807111         1.628279         1.657054
 C        -2.065718         0.138497         0.241195
 C        -2.555516         0.720661        -1.140337
 C        -2.354025         2.318749        -0.929451
 C        -1.624577         2.233000         0.360371
 H         0.709994        -0.262049         0.426992
 H        -1.072040         0.161407         2.714391
 H        -0.839618         1.867556         2.791793
 H        -4.004748         1.198521         2.573950
 H        -2.266799        -0.919275         0.489468
 H        -1.987507         0.531641        -2.025686
 H        -3.585982         0.425888        -1.278161
 H        -1.771906         2.793511        -1.690291
 H        -3.317922         2.793383        -0.772215
 H        -1.292610         3.207358         0.756780
