19
Iteration:  3226
 O         0.493239         0.651761         0.260538
 C        -0.796233         1.054339         0.641744
 C        -1.269930         0.916810         2.142429
 C        -2.508402         1.284559         1.314379
 O        -3.811179         1.547284         1.851352
 C        -2.064350         0.260030         0.189830
 C        -2.608010         0.684110        -1.198708
 C        -2.215288         2.337460        -0.965982
 C        -1.743293         2.305920         0.442649
 H         0.551233         0.085287        -0.553377
 H        -1.138731        -0.168831         2.421853
 H        -0.872636         1.633459         2.864320
 H        -4.507837         1.740405         1.270524
 H        -1.917337        -0.823853         0.244384
 H        -2.057576         0.203416        -2.057012
 H        -3.672554         0.462278        -1.274154
 H        -1.363105         2.486339        -1.648519
 H        -2.986891         2.943548        -1.348045
 H        -1.478982         3.310272         0.819538
