19
Iteration:  3935
 O         0.471762         0.824742         0.000898
 C        -0.759277         0.970248         0.663585
 C        -1.294655         0.885453         2.197614
 C        -2.539397         1.301239         1.357009
 O        -3.860110         1.682358         1.723272
 C        -2.124567         0.185102         0.257106
 C        -2.553718         0.696162        -1.069883
 C        -2.217448         2.213058        -0.919456
 C        -1.627709         2.223344         0.460396
 H         1.003100         0.057117         0.187052
 H        -1.315409        -0.198573         2.569602
 H        -1.095743         1.650821         2.976663
 H        -4.509614         1.277844         1.067759
 H        -2.343074        -0.839730         0.577594
 H        -1.822230         0.178277        -1.774970
 H        -3.619116         0.583344        -1.333162
 H        -1.377120         2.577243        -1.557965
 H        -3.001105         2.935258        -1.251563
 H        -1.303866         3.153379         0.904439
