19
Iteration:  3915
 O         0.424227         0.813431         0.191800
 C        -0.890850         0.891970         0.667890
 C        -1.141946         0.836517         2.118680
 C        -2.508709         1.357988         1.336488
 O        -3.789789         1.644312         1.749323
 C        -2.188701         0.251384         0.242852
 C        -2.545755         0.724538        -1.182318
 C        -2.215749         2.211072        -0.999665
 C        -1.674983         2.296177         0.437414
 H         0.801123         0.142328         0.927917
 H        -1.338371        -0.196224         2.494275
 H        -0.522993         1.592013         2.719770
 H        -4.371925         0.826155         1.506066
 H        -2.129537        -0.722613         0.688465
 H        -1.955859         0.215059        -2.034754
 H        -3.582091         0.507605        -1.329252
 H        -1.702522         2.641734        -1.901404
 H        -3.106860         2.852265        -1.079830
 H        -1.241962         3.167614         0.803506
