19
Iteration:  1295
 O         0.430336         0.773184         0.134397
 C        -0.875422         0.966710         0.649839
 C        -1.193655         0.952764         2.158804
 C        -2.543083         1.267875         1.391708
 O        -3.773085         1.652342         1.890342
 C        -2.261366         0.200560         0.228611
 C        -2.418809         0.678334        -1.264807
 C        -2.168681         2.234428        -1.017419
 C        -1.768067         2.283926         0.452387
 H         0.443313         0.383887        -0.839881
 H        -1.128481        -0.017727         2.741062
 H        -0.893938         1.818588         2.608846
 H        -4.091046         1.037143         2.476485
 H        -2.244368        -0.941674         0.474446
 H        -1.662196         0.185272        -1.873594
 H        -3.327675         0.317195        -1.745092
 H        -1.355976         2.612352        -1.695846
 H        -3.101239         2.804811        -1.325534
 H        -1.408061         3.159322         0.911348
