19
Iteration:  2525
 O         0.449018         0.627149         0.279177
 C        -0.798718         1.043548         0.582961
 C        -1.280780         0.914958         2.072639
 C        -2.515741         1.309404         1.305113
 O        -3.761197         1.633270         1.782658
 C        -2.066353         0.261401         0.233544
 C        -2.573786         0.616816        -1.112353
 C        -2.282971         2.273373        -0.972035
 C        -1.714867         2.343916         0.402531
 H         0.513667         0.832643        -0.708224
 H        -1.223850         0.034099         2.791249
 H        -0.912382         1.770945         2.707380
 H        -4.069390         0.813802         2.151533
 H        -1.941102        -0.721788         0.646753
 H        -1.840992         0.179666        -1.909595
 H        -3.574431         0.308355        -1.313372
 H        -1.496597         2.455758        -1.766249
 H        -3.112880         2.905818        -1.244682
 H        -1.547722         3.269821         0.822005
