19
Iteration:  3938charge 0 multiplicity 1
 O         0.474560         0.835142        -0.026740
 C        -0.752506         0.964826         0.686630
 C        -1.310981         0.900623         2.217311
 C        -2.547364         1.260868         1.329169
 O        -3.854156         1.678511         1.722791
 C        -2.133703         0.190543         0.278346
 C        -2.549281         0.729956        -1.066906
 C        -2.206434         2.200651        -0.908747
 C        -1.624803         2.211749         0.455122
 H         0.889573         0.002097         0.169195
 H        -1.331766        -0.139716         2.535228
 H        -1.198943         1.695726         3.021479
 H        -4.466912         1.379750         1.098584
 H        -2.213908        -0.826356         0.642323
 H        -1.890488         0.227522        -1.842656
 H        -3.567234         0.534413        -1.354181
 H        -1.405753         2.515706        -1.653946
 H        -2.939158         2.934127        -1.192008
 H        -1.299589         3.131083         0.856883
