19
Iteration:  1863charge 0 multiplicity 1
 O         0.516346         0.786808         0.209715
 C        -0.717214         1.030753         0.623664
 C        -1.235056         1.023954         2.110631
 C        -2.491196         1.278040         1.312958
 O        -3.787652         1.602797         1.635019
 C        -2.156403         0.188040         0.199148
 C        -2.773110         0.693164        -1.043741
 C        -2.290567         2.200959        -0.924744
 C        -1.549508         2.273209         0.438256
 H         0.601404        -0.235658         0.356357
 H        -1.222440         0.128274         2.638817
 H        -0.963977         1.822000         2.716536
 H        -4.321522         0.695311         1.863210
 H        -2.047923        -0.870026         0.446869
 H        -2.193945         0.247069        -1.838004
 H        -3.810662         0.483252        -1.054085
 H        -1.696881         2.223031        -1.744991
 H        -3.077818         2.932629        -1.063782
 H        -1.360969         3.269899         0.873870
