19
Iteration:  2260
 O         0.368105         0.804227         0.058939
 C        -0.868085         0.940532         0.628646
 C        -1.292263         0.986216         2.177528
 C        -2.545260         1.275970         1.412175
 O        -3.818162         1.582899         1.847007
 C        -2.128353         0.207364         0.314730
 C        -2.502634         0.678305        -1.142478
 C        -2.128880         2.269951        -1.081581
 C        -1.637844         2.309726         0.409847
 H         0.542928        -0.060392         0.223010
 H        -1.086591        -0.026912         2.641368
 H        -0.818641         1.848846         2.631892
 H        -4.259566         0.749610         1.863137
 H        -2.296547        -0.851962         0.567468
 H        -1.943536         0.159826        -1.937908
 H        -3.493415         0.474024        -1.389156
 H        -1.264430         2.563122        -1.698749
 H        -2.921933         2.957894        -1.474216
 H        -1.023197         3.160056         0.764177
