19
Iteration:  1638charge 0 multiplicity 1
 O         0.407936         0.740327         0.078113
 C        -0.865269         1.017883         0.624056
 C        -1.287583         0.868658         2.137252
 C        -2.499427         1.335863         1.445957
 O        -3.865661         1.677609         1.883158
 C        -2.040213         0.281745         0.228527
 C        -2.446239         0.605455        -1.183772
 C        -2.283531         2.189531        -1.079676
 C        -1.667546         2.318397         0.366815
 H         0.919564         0.475737         0.821150
 H        -1.404378        -0.134250         2.543359
 H        -0.819397         1.679315         2.673970
 H        -4.063554         0.964635         2.613969
 H        -2.108927        -0.857634         0.554764
 H        -1.848492         0.120560        -1.963764
 H        -3.501110         0.260584        -1.386872
 H        -1.439595         2.576567        -1.775246
 H        -3.192391         2.798310        -1.322172
 H        -1.145956         3.203381         0.695092
