19
Iteration:  3232
 O         0.517565         0.663908         0.249469
 C        -0.814140         1.041420         0.602236
 C        -1.300250         0.859195         2.171697
 C        -2.494974         1.280698         1.350115
 O        -3.811501         1.586932         1.845212
 C        -2.030734         0.233982         0.163189
 C        -2.587653         0.697138        -1.166396
 C        -2.190705         2.296942        -1.009568
 C        -1.777476         2.343799         0.474762
 H         0.360681         0.108603        -0.603821
 H        -1.029767        -0.095933         2.570684
 H        -0.916073         1.644824         2.848331
 H        -4.477142         1.616748         1.141062
 H        -1.929273        -0.860650         0.339806
 H        -2.213674         0.351790        -2.124576
 H        -3.691045         0.518864        -1.260299
 H        -1.350863         2.446942        -1.697429
 H        -3.097650         3.000263        -1.231519
 H        -1.594715         3.391795         0.795755
