19
Iteration:  4411
 O         0.525049         0.718625         0.371694
 C        -0.790256         1.005559         0.628649
 C        -1.229142         1.229668         2.134708
 C        -2.480337         1.350021         1.335051
 O        -3.880188         1.491729         1.919586
 C        -2.097293         0.248295         0.318052
 C        -2.590591         0.555025        -1.072419
 C        -2.282094         2.097870        -1.196188
 C        -1.689699         2.281115         0.193585
 H         0.682682         0.601601        -0.565746
 H        -1.277046         0.224252         2.660190
 H        -0.664317         2.018673         2.564775
 H        -4.325167         2.014268         1.224456
 H        -2.154000        -0.682524         0.874777
 H        -2.106045        -0.037848        -1.877572
 H        -3.618607         0.281874        -1.377639
 H        -1.480881         2.343259        -2.026132
 H        -3.240205         2.570218        -1.438813
 H        -1.219613         3.260784         0.533624
