19
Iteration:  1536
 O         0.490306         0.695154         0.198247
 C        -0.816045         0.937456         0.682456
 C        -1.201921         1.035751         2.156729
 C        -2.468371         1.264312         1.328163
 O        -3.789199         1.614238         1.604364
 C        -2.085277         0.160759         0.211595
 C        -2.717419         0.758908        -1.098674
 C        -2.269985         2.203316        -0.918509
 C        -1.635951         2.217384         0.390991
 H         0.999177         1.554438        -0.037053
 H        -1.134706         0.170728         2.939362
 H        -0.731575         1.851020         2.665117
 H        -4.199260         0.919059         1.992707
 H        -2.259696        -0.858092         0.501349
 H        -2.468357         0.179901        -1.985930
 H        -3.765251         0.844809        -0.790066
 H        -1.740044         2.679521        -1.776797
 H        -3.235550         2.831785        -0.851825
 H        -1.337057         3.109403         0.770672
