19
Iteration:  4866charge 0 multiplicity 1
 O         0.534852         0.747289         0.197552
 C        -0.827343         1.065779         0.649945
 C        -1.267631         1.126289         2.194067
 C        -2.499475         1.403846         1.342338
 O        -3.885899         1.594813         1.715471
 C        -2.071977         0.231280         0.299005
 C        -2.554560         0.453358        -1.076416
 C        -2.302097         2.000720        -1.008099
 C        -1.676492         2.236597         0.289916
 H         0.923023         1.527427        -0.041374
 H        -1.137662         0.026680         2.538262
 H        -0.896293         1.817855         2.946311
 H        -4.072477         2.551631         1.726672
 H        -2.111973        -0.802215         0.682166
 H        -1.894532        -0.057846        -1.812685
 H        -3.657495         0.266627        -1.125723
 H        -1.519669         2.247707        -1.787257
 H        -3.268418         2.595859        -1.338234
 H        -1.354084         3.304783         0.625524
