19
Iteration:  4412charge 0 multiplicity 1
 O         0.522284         0.720551         0.374217
 C        -0.788767         1.003333         0.628494
 C        -1.235010         1.231164         2.136319
 C        -2.479884         1.352842         1.328119
 O        -3.869536         1.491204         1.918658
 C        -2.095584         0.242686         0.315889
 C        -2.595042         0.554933        -1.076705
 C        -2.275568         2.092344        -1.197741
 C        -1.693758         2.280507         0.199345
 H         0.660439         0.623290        -0.636571
 H        -1.287345         0.243824         2.719694
 H        -0.668625         2.054466         2.556921
 H        -4.335310         2.051936         1.240620
 H        -2.151190        -0.691546         0.877931
 H        -2.108428         0.011849        -1.890536
 H        -3.622529         0.280573        -1.423857
 H        -1.491986         2.282048        -1.976882
 H        -3.246976         2.573526        -1.406589
 H        -1.226410         3.258477         0.577856
