19
Iteration:  2406charge 0 multiplicity 1
 O         0.436763         0.817972         0.100376
 C        -0.832664         0.918445         0.631820
 C        -1.181944         1.068103         2.140497
 C        -2.556250         1.318514         1.335881
 O        -3.902909         1.517299         1.847895
 C        -2.205677         0.186899         0.234603
 C        -2.617164         0.758118        -1.132694
 C        -2.081215         2.225045        -1.078110
 C        -1.603910         2.234297         0.420006
 H         0.914489         0.028747         0.551280
 H        -1.236950         0.274845         2.878480
 H        -0.776619         1.957038         2.683744
 H        -4.172495         0.559319         2.202895
 H        -2.444872        -0.862696         0.434838
 H        -2.238769         0.230812        -1.959418
 H        -3.707608         0.711810        -1.175488
 H        -1.107036         2.390344        -1.593982
 H        -2.717432         3.012736        -1.466233
 H        -1.114153         3.001450         0.951426
