19
Iteration:  3422charge 0 multiplicity 1
 O         0.444117         0.721819         0.116983
 C        -0.831761         0.966504         0.665697
 C        -1.233463         0.958429         2.150769
 C        -2.567323         1.318885         1.371291
 O        -3.815645         1.513213         1.788197
 C        -2.233837         0.231100         0.256619
 C        -2.594830         0.696728        -1.068371
 C        -2.159580         2.258523        -1.054536
 C        -1.592627         2.268378         0.436601
 H         1.137466         1.197193         0.571613
 H        -1.002215        -0.053897         2.557122
 H        -0.886290         1.779385         2.735250
 H        -4.446671         1.293986         1.186835
 H        -2.176570        -0.859967         0.246118
 H        -1.999634         0.357276        -1.959502
 H        -3.589193         0.645678        -1.507162
 H        -1.414826         2.510194        -1.803529
 H        -3.003385         2.947659        -1.087523
 H        -1.118166         3.207585         0.796808
