19
Iteration:   226charge 0 multiplicity 1
 O         0.378125         0.860719         0.175227
 C        -0.825008         0.882460         0.607942
 C        -1.236412         0.924824         2.060994
 C        -2.520577         1.372849         1.281934
 O        -3.831928         1.375085         1.773460
 C        -2.199790         0.261315         0.271040
 C        -2.581769         0.765361        -1.022914
 C        -2.178276         2.264279        -1.012813
 C        -1.580022         2.272290         0.426903
 H         0.773123        -0.020759         0.385936
 H        -1.264423        -0.137784         2.461220
 H        -0.675869         1.606194         2.666434
 H        -3.937668         2.400227         2.048647
 H        -2.428619        -0.777922         0.660548
 H        -1.939103         0.219614        -1.718430
 H        -3.585018         0.502814        -1.424378
 H        -1.347493         2.414149        -1.827277
 H        -2.932907         3.085778        -1.246447
 H        -0.946653         3.186335         0.766813
