19
Iteration:  4140
 O         0.431157         0.676903         0.246417
 C        -0.881808         1.075992         0.647198
 C        -1.267578         1.029293         2.148493
 C        -2.520085         1.310000         1.274384
 O        -3.788387         1.599611         1.846293
 C        -2.155469         0.193136         0.241039
 C        -2.539126         0.592458        -1.156038
 C        -2.163146         2.200656        -1.111200
 C        -1.753269         2.315353         0.325982
 H         1.015834         1.345737         0.581917
 H        -1.080098         0.012785         2.535026
 H        -0.746629         1.727102         2.741985
 H        -3.740013         0.931361         2.580381
 H        -2.130741        -0.864051         0.547767
 H        -1.905816         0.135366        -1.849844
 H        -3.614546         0.487289        -1.366589
 H        -1.345747         2.315679        -1.779573
 H        -3.042872         2.799190        -1.392030
 H        -1.336714         3.257644         0.786231
