19
Iteration:  4734
 O         0.463303         0.878250         0.172037
 C        -0.772016         1.035802         0.697031
 C        -1.218011         1.134301         2.192026
 C        -2.532597         1.300374         1.314566
 O        -3.840555         1.695524         1.620438
 C        -2.083459         0.154629         0.330417
 C        -2.529881         0.453905        -1.064142
 C        -2.283292         2.051478        -1.013558
 C        -1.715718         2.243432         0.372791
 H         0.365758         0.282037        -0.570776
 H        -1.311644         0.163976         2.729594
 H        -0.892167         1.993042         2.815338
 H        -3.890862         1.696369         2.574186
 H        -2.147382        -0.873171         0.684463
 H        -1.854237        -0.065559        -1.745508
 H        -3.537938         0.069425        -1.259239
 H        -1.547682         2.255804        -1.752668
 H        -3.039790         2.738054        -1.475906
 H        -1.487462         3.256430         0.678778
