19
Iteration:  2726
 O         0.469306         0.848348         0.193871
 C        -0.784399         0.915838         0.684513
 C        -1.288027         0.965137         2.122180
 C        -2.520571         1.342978         1.277191
 O        -3.812719         1.647054         1.778167
 C        -2.154834         0.212934         0.252191
 C        -2.554536         0.669229        -1.101522
 C        -2.182909         2.155287        -0.996599
 C        -1.631578         2.152131         0.381199
 H         0.524279         1.203833        -0.755728
 H        -1.357911         0.006583         2.715315
 H        -0.774288         1.762558         2.710523
 H        -4.285096         0.922567         2.194534
 H        -2.455849        -0.758120         0.682975
 H        -2.351079         0.204270        -2.075290
 H        -3.692584         0.582877        -1.205629
 H        -1.476019         2.400397        -1.766431
 H        -3.049914         2.874116        -0.979199
 H        -1.178015         3.089320         0.809038
