19
Iteration:  4107
 O         0.516607         0.683728         0.150373
 C        -0.829218         0.964002         0.673472
 C        -1.294805         1.103632         2.285021
 C        -2.565279         1.279332         1.294829
 O        -3.859758         1.509034         1.757360
 C        -2.135530         0.158749         0.230238
 C        -2.555591         0.656997        -1.148597
 C        -2.214430         2.245217        -1.004184
 C        -1.635858         2.272913         0.355899
 H         0.829102         1.362924        -0.402122
 H        -1.236734         0.126550         2.827432
 H        -0.883603         1.904032         2.840103
 H        -3.990738         2.392505         2.068104
 H        -2.152491        -0.846463         0.680549
 H        -2.023410         0.154385        -1.885755
 H        -3.547604         0.299855        -1.470244
 H        -1.518392         2.473539        -1.801846
 H        -3.100858         2.880065        -1.158881
 H        -1.119166         3.159653         0.848886
