19
Iteration:  1830charge 0 multiplicity 1
 O         0.529264         0.795753         0.204258
 C        -0.782892         0.885886         0.659300
 C        -1.238493         0.968705         2.135280
 C        -2.455216         1.311811         1.338423
 O        -3.754536         1.688157         1.723773
 C        -2.126819         0.156261         0.222942
 C        -2.587117         0.729332        -1.075234
 C        -2.396092         2.255334        -1.041358
 C        -1.722270         2.236062         0.374360
 H         1.029912         0.068138         0.461780
 H        -1.349274         0.127878         2.704960
 H        -0.810720         1.696355         2.718453
 H        -4.259122         0.900542         1.981383
 H        -2.242711        -0.914695         0.376262
 H        -2.092930         0.236174        -1.922109
 H        -3.565660         0.324958        -1.249949
 H        -1.754288         2.519098        -1.780463
 H        -3.290583         2.863895        -1.143746
 H        -1.347971         3.101073         0.946911
