19
Iteration:  2536charge 0 multiplicity 1
 O         0.429346         0.628752         0.248192
 C        -0.842380         1.058445         0.667965
 C        -1.228508         1.044685         2.199792
 C        -2.476136         1.249388         1.326809
 O        -3.743116         1.559398         1.782608
 C        -2.144968         0.215670         0.253195
 C        -2.579085         0.736051        -1.148480
 C        -2.251863         2.219546        -1.065278
 C        -1.713472         2.312713         0.366154
 H         0.763352         0.865769        -0.573659
 H        -1.192919        -0.022171         2.564110
 H        -0.851992         1.870418         2.847874
 H        -4.160916         0.859766         2.168347
 H        -2.158896        -0.850905         0.372379
 H        -1.996414         0.187029        -1.992872
 H        -3.615626         0.664712        -1.403863
 H        -1.445767         2.467675        -1.818853
 H        -3.120893         2.851369        -1.229882
 H        -1.362242         3.231787         0.690140
