19
Iteration:  1076charge 0 multiplicity 1
 O         0.462453         0.795184         0.135048
 C        -0.844786         0.956793         0.689219
 C        -1.270149         0.823717         2.077953
 C        -2.423121         1.361392         1.302383
 O        -3.771690         1.615867         1.695000
 C        -2.172550         0.214190         0.247007
 C        -2.653788         0.729466        -1.079178
 C        -2.239409         2.298606        -0.963870
 C        -1.626692         2.313341         0.425628
 H         0.681515        -0.019437         0.561484
 H        -1.258880        -0.282347         2.460669
 H        -0.750631         1.276822         2.859134
 H        -4.069964         0.703944         2.167224
 H        -2.225734        -0.881071         0.604027
 H        -2.128337         0.260075        -1.887568
 H        -3.715231         0.480172        -1.228714
 H        -1.461463         2.485166        -1.647250
 H        -3.065179         2.939567        -1.062486
 H        -1.290888         3.280608         0.804289
