19
Iteration:  1918
 O         0.423280         0.873449         0.054542
 C        -0.852358         0.987372         0.627239
 C        -1.332489         0.997036         2.083252
 C        -2.575488         1.221641         1.306427
 O        -3.719659         1.653117         1.858280
 C        -2.227266         0.179911         0.285837
 C        -2.511940         0.664337        -1.131403
 C        -2.051182         2.209809        -0.985732
 C        -1.731258         2.198849         0.452251
 H         0.627488        -0.041633         0.297147
 H        -1.100056         0.168078         2.687323
 H        -1.199821         1.907689         2.601048
 H        -4.090505         0.903249         2.486988
 H        -2.208213        -0.875537         0.573321
 H        -1.901261         0.158906        -1.875225
 H        -3.489549         0.543170        -1.548449
 H        -1.250878         2.347865        -1.597620
 H        -2.783995         2.919642        -1.352034
 H        -1.478594         3.221059         0.774522
