19
Iteration:  2970
 O         0.515758         0.767835         0.312780
 C        -0.808650         0.951546         0.670104
 C        -1.197027         0.970496         2.075551
 C        -2.542144         1.315115         1.337285
 O        -3.855781         1.479238         1.802837
 C        -2.187657         0.234975         0.256097
 C        -2.622270         0.665445        -1.145748
 C        -2.272361         2.269860        -1.076762
 C        -1.596252         2.207584         0.349674
 H         0.721349         0.777310        -0.603874
 H        -1.155122         0.042450         2.639501
 H        -0.870384         1.912678         2.506059
 H        -3.877375         2.335592         2.408786
 H        -2.297943        -0.839069         0.503087
 H        -1.986531         0.309179        -1.939014
 H        -3.681665         0.542597        -1.465831
 H        -1.482239         2.546360        -1.720289
 H        -3.066634         2.972546        -1.045060
 H        -1.148828         3.229639         0.590249
