19
Iteration:  2194
 O         0.506495         0.832328         0.179323
 C        -0.781450         1.015274         0.787695
 C        -1.213724         0.865283         2.160494
 C        -2.499554         1.348180         1.276276
 O        -3.809148         1.631266         1.735372
 C        -2.102959         0.196664         0.219906
 C        -2.696747         0.683047        -1.173838
 C        -2.251173         2.186235        -1.015453
 C        -1.659042         2.272245         0.379077
 H         1.005875        -0.061003         0.424926
 H        -1.325933        -0.267676         2.362848
 H        -0.789205         1.592625         2.856381
 H        -4.219779         0.836675         2.196160
 H        -2.337598        -0.731259         0.759426
 H        -2.476530         0.169312        -2.124295
 H        -3.762325         0.633358        -1.131944
 H        -1.624819         2.494556        -1.865637
 H        -2.954338         3.050787        -1.114348
 H        -1.212634         3.248045         0.698031
