19
Iteration:   933
 O         0.430053         0.837801         0.058682
 C        -0.814957         0.967179         0.667370
 C        -1.277296         0.825930         2.156551
 C        -2.486510         1.319816         1.330185
 O        -3.797384         1.604581         1.729991
 C        -2.183602         0.251787         0.222703
 C        -2.517864         0.734464        -1.113864
 C        -2.233895         2.198713        -0.970885
 C        -1.633887         2.320212         0.470122
 H         0.692221        -0.068799        -0.043280
 H        -1.644643        -0.279837         2.461739
 H        -0.891014         1.351921         3.025538
 H        -3.883185         1.192249         2.706199
 H        -2.338573        -0.869345         0.399326
 H        -1.857891         0.295620        -1.886518
 H        -3.615965         0.520391        -1.325902
 H        -1.578278         2.565081        -1.731936
 H        -3.123002         2.742149        -0.897288
 H        -1.105203         3.242936         0.828532
