19
Iteration:   298charge 0 multiplicity 1
 O         0.581392         0.764011         0.236393
 C        -0.791775         0.957449         0.652376
 C        -1.171756         0.899027         2.166990
 C        -2.493678         1.319721         1.362469
 O        -3.859238         1.491415         1.702846
 C        -2.268569         0.331454         0.268673
 C        -2.568134         0.719541        -1.182121
 C        -2.296093         2.242465        -1.006976
 C        -1.626456         2.266427         0.350555
 H         0.450535         0.183811        -0.624408
 H        -1.164630        -0.143512         2.539320
 H        -0.930646         1.633676         3.008783
 H        -3.827955         1.874186         2.718373
 H        -2.776965        -0.598670         0.615217
 H        -1.849163         0.214489        -1.882888
 H        -3.540831         0.436637        -1.619524
 H        -1.844226         2.810180        -1.767667
 H        -3.298685         2.641221        -0.832161
 H        -1.167755         3.202076         0.781335
