19
Iteration:  3992charge 0 multiplicity 1
 O         0.533210         0.739147         0.252159
 C        -0.791283         1.068802         0.635864
 C        -1.209904         0.935385         2.099074
 C        -2.548613         1.270364         1.302213
 O        -3.883867         1.459487         1.891265
 C        -2.259357         0.286146         0.252664
 C        -2.577774         0.693018        -1.141731
 C        -2.108117         2.262917        -1.110540
 C        -1.667286         2.293529         0.394342
 H         0.291847        -0.076617        -0.200296
 H        -1.115349        -0.071527         2.541950
 H        -0.683388         1.707379         2.790302
 H        -4.179395         2.340645         1.771017
 H        -2.264602        -0.716354         0.609125
 H        -2.012756        -0.127878        -1.724151
 H        -3.493730         0.619204        -1.672967
 H        -1.250625         2.542268        -1.805809
 H        -3.046861         2.821586        -1.310380
 H        -1.684693         3.234150         0.842334
