19
Iteration:  4700charge 0 multiplicity 1
 O         0.576251         0.774051         0.408203
 C        -0.775003         1.069195         0.691615
 C        -1.193324         1.174173         2.107528
 C        -2.491390         1.377263         1.193892
 O        -3.876604         1.533061         1.780422
 C        -2.118325         0.234337         0.286876
 C        -2.645037         0.448119        -1.122249
 C        -2.297869         2.086326        -1.089670
 C        -1.658834         2.291356         0.227227
 H         0.530945         0.558735        -0.626440
 H        -1.399069         0.266530         2.648269
 H        -0.791108         1.942364         2.827346
 H        -3.780066         1.764362         2.698902
 H        -2.295040        -0.763777         0.698790
 H        -2.132181        -0.118752        -1.875885
 H        -3.763067         0.270595        -1.235007
 H        -1.642933         2.231209        -1.879556
 H        -3.280844         2.615801        -1.105928
 H        -1.476742         3.325736         0.601693
