19
Iteration:  1239charge 0 multiplicity 1
 O         0.468396         0.710704         0.147451
 C        -0.787491         1.045544         0.686354
 C        -1.253816         0.882938         2.139153
 C        -2.462625         1.332940         1.346079
 O        -3.750044         1.577930         1.667576
 C        -2.103488         0.262563         0.241423
 C        -2.661571         0.757029        -1.086642
 C        -2.270423         2.226168        -1.004787
 C        -1.733500         2.319182         0.414954
 H         0.935575         0.002346         0.545188
 H        -1.263340        -0.204584         2.454345
 H        -0.805633         1.441219         2.875367
 H        -4.089032         0.823404         2.154785
 H        -2.197757        -0.797525         0.600085
 H        -2.189690         0.273079        -1.927298
 H        -3.696361         0.433906        -1.101547
 H        -1.456693         2.353880        -1.785942
 H        -3.061706         3.019383        -1.149170
 H        -1.392619         3.306073         0.757891
