19
Iteration:  3241charge 0 multiplicity 1
 O         0.516928         0.718110         0.209078
 C        -0.817014         1.001035         0.660547
 C        -1.289798         0.838207         2.163339
 C        -2.550705         1.264669         1.354327
 O        -3.793727         1.625302         1.831108
 C        -1.990388         0.182696         0.134757
 C        -2.566227         0.814543        -1.117876
 C        -2.216096         2.174997        -1.068773
 C        -1.761301         2.346318         0.471254
 H         0.331574         0.220512        -0.683624
 H        -1.341766        -0.128106         2.731596
 H        -0.958037         1.673502         2.809244
 H        -4.194867         1.379070         0.978977
 H        -2.202587        -0.777790         0.601443
 H        -2.223680         0.354098        -2.054292
 H        -3.670013         0.718141        -1.082249
 H        -1.420133         2.618595        -1.680143
 H        -3.037999         2.919353        -1.168269
 H        -1.546503         3.233987         1.052825
