19
Iteration:  3450
 O         0.445975         0.603221         0.207682
 C        -0.817553         0.981055         0.674306
 C        -1.262766         1.035961         2.128789
 C        -2.527933         1.418537         1.276656
 O        -3.768300         1.385083         1.936920
 C        -2.146516         0.256001         0.226837
 C        -2.554538         0.744197        -1.196037
 C        -2.193092         2.283425        -1.106753
 C        -1.689030         2.333105         0.378857
 H         1.060570         0.460194         0.875507
 H        -1.256612         0.025024         2.572997
 H        -0.840517         1.842802         2.851013
 H        -4.430323         1.332955         1.253674
 H        -2.211839        -0.816563         0.477137
 H        -2.252258         0.298168        -2.157777
 H        -3.707491         0.731668        -1.329496
 H        -1.407170         2.636564        -1.814100
 H        -3.128434         2.910946        -1.135525
 H        -1.368485         3.304644         0.815657
