19
Iteration:  4557
 O         0.514773         0.716896         0.420475
 C        -0.881841         1.055813         0.667940
 C        -1.284929         1.171275         2.138271
 C        -2.455669         1.496243         1.310698
 O        -3.771987         1.435829         1.793494
 C        -2.098815         0.260657         0.328151
 C        -2.600270         0.487160        -1.166334
 C        -2.344635         2.066843        -1.138686
 C        -1.626788         2.315146         0.193215
 H         0.535105         0.452993        -0.598099
 H        -1.127752         0.155500         2.548187
 H        -0.776527         1.975039         2.795341
 H        -3.938243         2.196716         2.365736
 H        -2.047492        -0.802379         0.681460
 H        -1.947862         0.016346        -1.876006
 H        -3.643837         0.256348        -1.559631
 H        -1.733900         2.385570        -1.966341
 H        -3.386702         2.527924        -1.042846
 H        -1.299158         3.325416         0.548845
