19
Iteration:  3448
 O         0.428649         0.615063         0.206091
 C        -0.821072         0.977619         0.659259
 C        -1.239751         1.029910         2.115269
 C        -2.521471         1.407537         1.307297
 O        -3.775204         1.384574         1.920850
 C        -2.148497         0.258953         0.248958
 C        -2.557004         0.736751        -1.198110
 C        -2.202846         2.288290        -1.096006
 C        -1.659991         2.327214         0.364498
 H         1.040197         0.515631         0.963427
 H        -1.322500         0.033175         2.584005
 H        -0.890136         1.839075         2.845692
 H        -4.414247         1.313855         1.274275
 H        -2.271799        -0.827506         0.533289
 H        -2.227153         0.357183        -2.167523
 H        -3.646790         0.789903        -1.367731
 H        -1.390110         2.608549        -1.825805
 H        -3.099397         2.926223        -1.188423
 H        -1.422139         3.300297         0.817643
