19
Iteration:  4173
 O         0.501329         0.804349         0.093767
 C        -0.828494         1.019644         0.678767
 C        -1.309606         1.035499         2.202330
 C        -2.548985         1.366082         1.275609
 O        -3.812093         1.580524         1.885119
 C        -2.132296         0.175250         0.293763
 C        -2.511016         0.601413        -1.069530
 C        -2.162461         2.129736        -1.091323
 C        -1.720652         2.267911         0.324705
 H         1.049130         0.299898         0.872739
 H        -1.290327         0.018621         2.664291
 H        -0.730095         1.770041         2.702774
 H        -4.502964         1.523428         1.141249
 H        -2.284826        -0.903085         0.420686
 H        -2.077970         0.037681        -1.834908
 H        -3.607194         0.535298        -1.326711
 H        -1.593677         2.609663        -1.845909
 H        -3.074660         2.724938        -1.253032
 H        -1.350370         3.257659         0.737822
