19
Iteration:  1257charge 0 multiplicity 1
 O         0.423146         0.759281         0.138792
 C        -0.827476         1.027480         0.638626
 C        -1.292844         0.924443         2.215004
 C        -2.486298         1.271615         1.314383
 O        -3.763673         1.595359         1.861708
 C        -2.138199         0.251861         0.209197
 C        -2.560259         0.685873        -1.209061
 C        -2.245140         2.238060        -1.079400
 C        -1.619837         2.288658         0.427247
 H         0.483422        -0.185269         0.133321
 H        -1.295163         0.031634         2.786668
 H        -1.022870         1.778594         2.969774
 H        -4.041148         0.775492         2.278860
 H        -2.120514        -0.782127         0.396344
 H        -1.918524         0.107606        -2.005482
 H        -3.657142         0.711121        -1.375032
 H        -1.532137         2.616098        -1.840326
 H        -3.137369         2.902149        -1.115943
 H        -1.266890         3.297032         0.879337
