19
Iteration:  3788
 O         0.407630         0.851990         0.125274
 C        -0.840618         0.990185         0.719434
 C        -1.224225         0.922095         2.169668
 C        -2.505952         1.216546         1.258668
 O        -3.753317         1.586483         1.776070
 C        -2.162669         0.190853         0.216614
 C        -2.575141         0.745958        -1.172609
 C        -2.142845         2.206890        -0.976187
 C        -1.736547         2.224717         0.479314
 H         0.419514        -0.166778         0.026577
 H        -1.090879         0.002306         2.697084
 H        -1.082498         1.679826         2.982373
 H        -4.009202         2.248303         1.186030
 H        -2.160245        -0.950349         0.302862
 H        -1.976966         0.259323        -1.933894
 H        -3.713081         0.680718        -1.149108
 H        -1.204057         2.382521        -1.522547
 H        -2.882987         2.954694        -1.226779
 H        -1.512225         3.104000         1.187043
