19
Iteration:  1721charge 0 multiplicity 1
 O         0.561374         0.799789         0.146469
 C        -0.830778         1.017529         0.623192
 C        -1.301687         0.927909         2.139021
 C        -2.450785         1.410512         1.296350
 O        -3.757246         1.598193         1.695445
 C        -2.147568         0.248791         0.260730
 C        -2.676702         0.644710        -1.037816
 C        -2.220113         2.105915        -0.973281
 C        -1.711740         2.359808         0.426383
 H         0.749137        -0.200539        -0.020423
 H        -1.440832        -0.109031         2.602428
 H        -0.822219         1.643675         2.755374
 H        -4.085401         0.585773         1.841464
 H        -2.279298        -0.699999         0.673651
 H        -2.177080         0.104067        -1.853088
 H        -3.750797         0.541120        -1.051016
 H        -1.504368         2.360025        -1.674197
 H        -3.106071         2.721377        -1.159156
 H        -1.369964         3.293949         0.905150
