19
Iteration:   557
 O         0.544398         0.781187         0.100384
 C        -0.769920         1.009991         0.709226
 C        -1.157144         0.928876         2.196580
 C        -2.506400         1.262655         1.312936
 O        -3.902038         1.461951         1.642269
 C        -2.139094         0.295627         0.285676
 C        -2.710924         0.780575        -1.069347
 C        -2.183416         2.204392        -1.005033
 C        -1.642384         2.235343         0.458504
 H         0.309449        -0.083607        -0.441275
 H        -0.985843        -0.022829         2.640160
 H        -0.802923         1.752502         2.838145
 H        -4.064758         2.390792         2.085395
 H        -2.318047        -0.681623         0.538722
 H        -2.303997         0.147107        -1.871395
 H        -3.791150         0.711773        -1.121784
 H        -1.504505         2.394134        -1.874147
 H        -3.079083         2.819768        -1.063523
 H        -1.419994         3.243076         1.030862
