19
Iteration:  1358charge 0 multiplicity 1
 O         0.498449         0.712402         0.273755
 C        -0.778564         0.955401         0.693464
 C        -1.089872         0.994996         2.134535
 C        -2.517467         1.209896         1.297451
 O        -3.774987         1.607446         1.644550
 C        -2.212676         0.164038         0.240948
 C        -2.740751         0.765464        -1.063948
 C        -2.311128         2.240012        -1.001237
 C        -1.596373         2.209416         0.357574
 H         0.852625         1.656130        -0.038051
 H        -0.883514         0.159673         2.802724
 H        -0.812965         2.011793         2.697797
 H        -4.194829         0.881825         2.022626
 H        -2.229547        -0.850826         0.396110
 H        -2.356935         0.386267        -2.117382
 H        -3.832062         0.602496        -1.197727
 H        -1.642965         2.635819        -1.827633
 H        -3.207095         2.929520        -0.902080
 H        -1.301876         3.164607         0.874384
