19
Iteration:  1116charge 0 multiplicity 1
 O         0.363866         0.717752         0.139259
 C        -0.872480         0.958910         0.664061
 C        -1.276469         1.004413         2.154020
 C        -2.598780         1.303536         1.305694
 O        -3.748296         1.619486         1.891384
 C        -2.098520         0.118132         0.167139
 C        -2.448752         0.737635        -1.258251
 C        -2.185189         2.302609        -0.947910
 C        -1.685961         2.211893         0.430985
 H         0.367758        -0.052299        -0.528420
 H        -1.265585         0.107843         2.797470
 H        -0.865288         1.894785         2.710721
 H        -3.855546         1.109135         2.624116
 H        -2.234157        -0.910194         0.331130
 H        -1.668181         0.531531        -2.038302
 H        -3.444849         0.571566        -1.633750
 H        -1.369447         2.680206        -1.692535
 H        -3.104390         3.005621        -0.950294
 H        -1.418277         3.196433         1.012025
