19
Iteration:  3206
 O         0.497177         0.698364         0.308797
 C        -0.852417         0.933921         0.625870
 C        -1.309807         0.968456         2.114149
 C        -2.480876         1.338910         1.279160
 O        -3.773474         1.401211         1.884300
 C        -2.207571         0.243494         0.241027
 C        -2.513477         0.800874        -1.148242
 C        -2.214206         2.280319        -1.066149
 C        -1.627849         2.299558         0.389176
 H         0.400309         0.265604        -0.622936
 H        -1.177827         0.041879         2.735734
 H        -0.882985         1.852803         2.609703
 H        -4.343122         2.013087         1.471737
 H        -2.516412        -0.767642         0.522333
 H        -1.935513         0.445673        -2.023313
 H        -3.534541         0.648502        -1.482108
 H        -1.666651         2.635720        -1.972477
 H        -3.137267         2.787098        -0.940050
 H        -1.303119         3.262749         0.717039
