19
Iteration:  2197charge 0 multiplicity 1
 O         0.484069         0.842238         0.179582
 C        -0.799407         1.022955         0.783988
 C        -1.229852         0.843356         2.150429
 C        -2.492579         1.359999         1.268649
 O        -3.804755         1.624023         1.750587
 C        -2.096781         0.197231         0.239405
 C        -2.678758         0.710644        -1.164232
 C        -2.237134         2.174003        -1.029403
 C        -1.656515         2.265040         0.371368
 H         0.893180         0.092762         0.419875
 H        -1.258319        -0.218773         2.413351
 H        -0.701004         1.481771         2.853806
 H        -4.258567         0.908732         2.104747
 H        -2.238735        -0.786079         0.719579
 H        -2.449824         0.105743        -2.081034
 H        -3.864917         0.674408        -1.090231
 H        -1.551984         2.426405        -1.943256
 H        -2.948934         2.993522        -1.103481
 H        -1.194251         3.169551         0.688844
