19
Iteration:  2258
 O         0.353480         0.819133         0.061568
 C        -0.866490         0.933287         0.638985
 C        -1.268938         0.989622         2.186082
 C        -2.538274         1.266405         1.414010
 O        -3.834380         1.586161         1.855275
 C        -2.128465         0.204582         0.291931
 C        -2.500070         0.682016        -1.155070
 C        -2.109878         2.262620        -1.084955
 C        -1.638569         2.307689         0.401542
 H         0.582972        -0.112808         0.233213
 H        -1.081977        -0.024509         2.681647
 H        -0.813281         1.876269         2.663032
 H        -4.309720         0.791761         1.858516
 H        -2.318876        -0.863182         0.534265
 H        -1.969855         0.108140        -1.935038
 H        -3.545145         0.505661        -1.344771
 H        -1.289053         2.522408        -1.728597
 H        -2.954018         2.965953        -1.404933
 H        -1.003625         3.176291         0.774600
