19
Iteration:  3794charge 0 multiplicity 1
 O         0.399620         0.862061         0.085662
 C        -0.866704         0.987714         0.678541
 C        -1.239670         0.939584         2.228076
 C        -2.549308         1.178978         1.325148
 O        -3.757115         1.591198         1.755862
 C        -2.115796         0.190699         0.205664
 C        -2.544717         0.738605        -1.114984
 C        -2.126184         2.191417        -0.931230
 C        -1.693753         2.202826         0.436944
 H         0.295322        -0.038882        -0.010770
 H        -1.127139        -0.081295         2.678620
 H        -1.219211         1.786183         2.927161
 H        -3.998352         2.366583         1.227945
 H        -2.291562        -0.864851         0.118722
 H        -2.046527         0.359449        -2.043634
 H        -3.611171         0.748667        -1.193475
 H        -1.241667         2.400000        -1.569793
 H        -2.835876         2.996481        -1.208898
 H        -1.567037         3.090912         0.985405
