19
Iteration:  3724charge 0 multiplicity 1
 O         0.463907         0.650332         0.240362
 C        -0.835302         0.978574         0.588666
 C        -1.265559         1.007089         2.153648
 C        -2.454146         1.266784         1.292628
 O        -3.749591         1.537763         1.886078
 C        -2.182117         0.230590         0.151285
 C        -2.536214         0.807548        -1.184859
 C        -2.243606         2.291575        -1.028812
 C        -1.733349         2.241234         0.451950
 H         0.777605         0.242880         1.007251
 H        -1.263499        -0.003840         2.583244
 H        -0.923374         1.930357         2.654596
 H        -4.386391         1.117898         1.365162
 H        -2.176198        -0.868062         0.242434
 H        -1.920284         0.337757        -1.963648
 H        -3.629358         0.674232        -1.469022
 H        -1.446869         2.675404        -1.681925
 H        -3.129310         2.930725        -1.344413
 H        -1.325074         3.245122         0.804983
