19
Iteration:  2018charge 0 multiplicity 1
 O         0.505056         0.742532         0.176574
 C        -0.718862         0.930488         0.674626
 C        -1.213146         1.010908         2.068253
 C        -2.484723         1.305817         1.267530
 O        -3.872145         1.600106         1.637717
 C        -2.095734         0.211591         0.270692
 C        -2.639447         0.734236        -1.049063
 C        -2.281254         2.253466        -0.923232
 C        -1.655671         2.244780         0.408253
 H         0.805342        -0.072731         0.419019
 H        -1.013439         0.148368         2.708684
 H        -0.956179         1.917182         2.626417
 H        -4.236525         0.789588         1.941447
 H        -2.255444        -0.819371         0.550140
 H        -2.318630         0.244103        -2.026437
 H        -3.721513         0.614049        -0.841677
 H        -1.670992         2.646361        -1.711054
 H        -3.311652         2.683744        -0.832942
 H        -1.375459         3.252264         0.833844
