19
Iteration:    97
 O         0.450544         0.673757         0.243226
 C        -0.858686         1.024106         0.617867
 C        -1.206363         0.917209         2.204612
 C        -2.481715         1.182508         1.341423
 O        -3.765193         1.535744         1.697384
 C        -2.055085         0.218004         0.163881
 C        -2.583912         0.786428        -1.190526
 C        -2.292254         2.325920        -0.939031
 C        -1.775756         2.281796         0.488136
 H         0.384489         0.189803        -0.580265
 H        -1.050471        -0.139639         2.655954
 H        -0.801360         1.641012         2.921143
 H        -3.769563         2.396399         1.949726
 H        -1.939431        -0.878238         0.178961
 H        -1.921370         0.422774        -1.995653
 H        -3.683361         0.603112        -1.320653
 H        -1.492186         2.610446        -1.600333
 H        -3.163393         2.964347        -1.144252
 H        -1.484877         3.174391         0.963501
