19
Iteration:  2181
 O         0.598578         0.785162         0.198080
 C        -0.731695         0.947763         0.605507
 C        -1.267863         0.951981         2.170960
 C        -2.484099         1.295279         1.293490
 O        -3.806562         1.632076         1.689153
 C        -2.158284         0.237208         0.211574
 C        -2.709750         0.680293        -1.124749
 C        -2.302528         2.249017        -0.990796
 C        -1.651752         2.259405         0.426785
 H         0.806831        -0.112037         0.464016
 H        -1.275641        -0.003519         2.797284
 H        -1.005195         1.728841         2.940614
 H        -4.032689         0.945989         2.353085
 H        -2.323735        -0.845386         0.392277
 H        -2.170113         0.258021        -1.964179
 H        -3.721159         0.480884        -1.168741
 H        -1.562273         2.538991        -1.668825
 H        -3.266963         2.790652        -1.028438
 H        -1.441707         3.275147         0.873525
