19
Iteration:  1514charge 0 multiplicity 1
 O         0.610521         0.694020         0.188280
 C        -0.751395         0.897152         0.612677
 C        -1.223436         1.001837         2.113377
 C        -2.509977         1.276029         1.290421
 O        -3.876163         1.667165         1.693552
 C        -2.138581         0.168807         0.270047
 C        -2.709925         0.716168        -1.072848
 C        -2.335080         2.286105        -0.936312
 C        -1.623489         2.218282         0.389041
 H         1.139408         1.462350         0.030552
 H        -1.144084         0.079886         2.831389
 H        -0.901856         1.838508         2.725877
 H        -4.325650         0.780327         2.091437
 H        -2.117511        -0.884269         0.472876
 H        -2.074292         0.312835        -1.875772
 H        -3.771385         0.403064        -1.068716
 H        -1.597651         2.439744        -1.763920
 H        -3.116076         3.095610        -1.069925
 H        -1.336191         3.093318         0.825149
