19
Iteration:  2967
 O         0.536009         0.768090         0.331164
 C        -0.806163         0.965273         0.639366
 C        -1.177124         0.979171         2.097819
 C        -2.550766         1.306277         1.328228
 O        -3.866619         1.479710         1.803223
 C        -2.228439         0.213336         0.248268
 C        -2.638337         0.691345        -1.148623
 C        -2.253295         2.262485        -1.069283
 C        -1.592941         2.211584         0.337112
 H         0.689415         0.786864        -0.675124
 H        -1.122750         0.082819         2.722266
 H        -0.839638         1.914261         2.502981
 H        -3.842303         2.168131         2.410299
 H        -2.297366        -0.826054         0.558361
 H        -1.967826         0.190140        -1.900114
 H        -3.667454         0.526213        -1.474919
 H        -1.475848         2.586141        -1.739802
 H        -3.093799         3.003316        -0.979617
 H        -1.130504         3.213730         0.548329
