19
Iteration:  3416charge 0 multiplicity 1
 O         0.451630         0.722855         0.081978
 C        -0.803194         0.959397         0.703940
 C        -1.224040         0.940618         2.146875
 C        -2.539920         1.334139         1.343576
 O        -3.841829         1.559588         1.798440
 C        -2.179558         0.193561         0.270705
 C        -2.580608         0.699686        -1.145308
 C        -2.163503         2.248407        -1.011157
 C        -1.615128         2.248713         0.444517
 H         1.079843         1.325099         0.459662
 H        -1.214864        -0.041803         2.641785
 H        -0.957687         1.756810         2.900298
 H        -4.548182         1.286238         1.106205
 H        -2.245461        -0.919489         0.453463
 H        -2.077498         0.276603        -2.028783
 H        -3.695886         0.790944        -1.307413
 H        -1.443120         2.577595        -1.819052
 H        -3.041520         2.911262        -1.157266
 H        -1.339344         3.191340         0.938819
