19
Iteration:  2578
 O         0.497850         0.748757         0.200547
 C        -0.829436         1.024144         0.599947
 C        -1.285743         0.983480         2.129358
 C        -2.532709         1.344261         1.353185
 O        -3.785675         1.576228         1.757179
 C        -2.153678         0.206056         0.267983
 C        -2.678084         0.723898        -1.055666
 C        -2.113680         2.158261        -1.044474
 C        -1.663802         2.251606         0.420011
 H         0.462934         1.146103        -0.732709
 H        -1.256302        -0.064961         2.461581
 H        -0.967666         1.750947         2.849675
 H        -4.049147         0.700011         2.185725
 H        -2.293311        -0.827849         0.546987
 H        -2.071462         0.179644        -1.947504
 H        -3.744470         0.623938        -1.107026
 H        -1.229275         2.199370        -1.734101
 H        -2.895831         2.794940        -1.398045
 H        -1.262734         3.176628         0.822718
