19
Iteration:  3951charge 0 multiplicity 1
 O         0.406363         0.860172        -0.048755
 C        -0.818855         0.996654         0.755362
 C        -1.415029         0.950429         2.267205
 C        -2.544642         1.235337         1.288993
 O        -3.761015         1.610217         1.748501
 C        -2.090069         0.163794         0.308679
 C        -2.548996         0.709057        -1.123725
 C        -2.114596         2.228678        -0.991161
 C        -1.592356         2.201099         0.478255
 H         0.565298        -0.206824        -0.100037
 H        -1.415128         0.107186         2.910162
 H        -0.965277         1.778820         2.890055
 H        -4.423573         1.692678         0.943391
 H        -2.125305        -0.946871         0.415969
 H        -2.048116         0.318873        -1.997954
 H        -3.654325         0.609212        -1.140505
 H        -1.426019         2.505141        -1.819527
 H        -2.997154         2.803440        -0.785946
 H        -1.336840         3.171607         0.993838
