19
Iteration:  1887
 O         0.457774         0.813176         0.116649
 C        -0.755889         0.927620         0.703029
 C        -1.213015         0.879312         2.214057
 C        -2.501696         1.451696         1.387010
 O        -3.847545         1.555631         1.700836
 C        -2.112170         0.202584         0.291407
 C        -2.638161         0.716441        -1.102647
 C        -2.165800         2.233347        -1.113453
 C        -1.721130         2.296749         0.351067
 H         0.805020        -0.142773         0.291540
 H        -1.274097        -0.066001         2.664264
 H        -0.767309         1.555425         2.813072
 H        -4.052277         0.731632         2.146916
 H        -2.160690        -0.743150         0.749499
 H        -2.311121         0.099555        -1.938547
 H        -3.697777         0.740169        -0.859754
 H        -1.495967         2.526887        -1.861968
 H        -3.093635         2.785821        -1.177649
 H        -1.419924         3.304435         0.629558
