19
Iteration:  4050
 O         0.569491         0.750368         0.267453
 C        -0.812780         1.031456         0.675017
 C        -1.263004         0.974358         2.123351
 C        -2.547056         1.221244         1.328041
 O        -3.830468         1.670015         1.694127
 C        -2.145881         0.206362         0.247580
 C        -2.582510         0.729002        -1.154986
 C        -2.262873         2.189013        -0.981218
 C        -1.648162         2.206227         0.410935
 H         0.364359         0.318214        -0.604420
 H        -0.931697         0.064775         2.626306
 H        -0.835825         1.861549         2.638704
 H        -4.347242         0.904740         2.127731
 H        -2.254501        -0.833617         0.673947
 H        -1.943733         0.269463        -1.882400
 H        -3.669024         0.649384        -1.270444
 H        -1.558006         2.490184        -1.775996
 H        -3.156415         2.815651        -1.161998
 H        -1.340158         3.221434         0.772366
