19
Iteration:  3459charge 0 multiplicity 1
 O         0.505429         0.561580         0.184584
 C        -0.805051         0.999229         0.721433
 C        -1.351345         1.043921         2.164118
 C        -2.556710         1.355562         1.213419
 O        -3.745710         1.415809         1.976320
 C        -2.079988         0.286942         0.123596
 C        -2.593910         0.784649        -1.191194
 C        -2.180887         2.258355        -1.085412
 C        -1.770778         2.373826         0.390878
 H         1.097633         0.307657         0.834066
 H        -1.225768         0.082956         2.669111
 H        -0.769758         1.854516         2.723303
 H        -4.498382         1.460825         1.392969
 H        -2.127543        -0.824362         0.329463
 H        -2.127853         0.076637        -1.873622
 H        -3.627360         0.501308        -1.107108
 H        -1.469843         2.735301        -1.833999
 H        -3.103098         2.865392        -1.195141
 H        -1.238377         3.241198         0.757228
