19
Iteration:  4199charge 0 multiplicity 1
 O         0.430597         0.879874         0.170372
 C        -0.832980         0.968297         0.707911
 C        -1.214376         1.118955         2.211641
 C        -2.511469         1.273652         1.316444
 O        -3.820046         1.556236         1.689165
 C        -2.104666         0.217168         0.272332
 C        -2.587363         0.608015        -1.085241
 C        -2.254486         2.087043        -0.991517
 C        -1.692322         2.193946         0.391780
 H         0.665850        -0.144387        -0.025094
 H        -1.053599         0.248244         2.802292
 H        -0.688536         2.056351         2.545767
 H        -3.834990         2.537426         1.535727
 H        -2.232649        -0.874048         0.423039
 H        -1.990189         0.111087        -1.928823
 H        -3.514860         0.257865        -1.491357
 H        -1.490285         2.452211        -1.782433
 H        -3.012932         2.868733        -1.180394
 H        -1.250624         3.078075         0.783923
