19
Iteration:  2288charge 0 multiplicity 1
 O         0.444895         0.687726         0.096219
 C        -0.734991         0.980306         0.731968
 C        -1.226776         0.943501         2.174736
 C        -2.518016         1.315126         1.321083
 O        -3.835663         1.607676         1.787872
 C        -2.118633         0.280645         0.242993
 C        -2.474016         0.669926        -1.184807
 C        -2.257452         2.210275        -1.023090
 C        -1.708957         2.392992         0.425880
 H         0.509684        -0.239525         0.158463
 H        -1.196916        -0.039328         2.641806
 H        -0.860293         1.718419         2.875746
 H        -4.139069         0.773681         2.279117
 H        -2.470016        -0.752779         0.416581
 H        -1.931774         0.145529        -1.993204
 H        -3.628644         0.462843        -1.365496
 H        -1.806269         2.817449        -1.815198
 H        -3.297465         2.603171        -0.995262
 H        -1.453628         3.454582         0.694119
