19
Iteration:  3078charge 0 multiplicity 1
 O         0.478104         0.602812         0.333580
 C        -0.827005         1.046245         0.643916
 C        -1.213769         0.951646         2.073529
 C        -2.567776         1.335211         1.265684
 O        -3.819396         1.568731         1.832928
 C        -1.977676         0.232404         0.198480
 C        -2.614679         0.696888        -1.166491
 C        -2.208339         2.266917        -1.120823
 C        -1.731386         2.313866         0.458936
 H         0.706877         0.832559        -0.534288
 H        -1.200584        -0.099792         2.431912
 H        -0.807991         1.663910         2.772461
 H        -4.195873         0.755628         2.418895
 H        -2.090382        -0.815984         0.530505
 H        -2.434894         0.133836        -2.100294
 H        -3.706664         0.761710        -0.964798
 H        -1.468093         2.744328        -1.763379
 H        -3.107065         3.000276        -1.349670
 H        -1.542167         3.332991         0.970637
