19
Iteration:  3715
 O         0.438950         0.624848         0.213588
 C        -0.799079         0.974771         0.650167
 C        -1.160490         1.021109         2.049242
 C        -2.590322         1.245567         1.332730
 O        -3.805798         1.572078         1.854058
 C        -2.064531         0.208006         0.205114
 C        -2.556724         0.791380        -1.193419
 C        -2.244242         2.322954        -1.035237
 C        -1.760354         2.255584         0.454887
 H         0.845846         0.224152         0.931186
 H        -1.106198         0.062052         2.716024
 H        -0.776663         1.684818         2.808413
 H        -4.483415         1.184087         1.352597
 H        -2.155406        -0.897338         0.311970
 H        -1.856555         0.458868        -2.007494
 H        -3.611886         0.736928        -1.586142
 H        -1.351657         2.560698        -1.591349
 H        -3.174361         2.982439        -1.266698
 H        -1.352463         3.193510         0.998929
