19
Iteration:  2242charge 0 multiplicity 1
 O         0.383598         0.868484         0.052243
 C        -0.820025         0.964730         0.753557
 C        -1.138636         0.995395         2.220797
 C        -2.594411         1.304708         1.265789
 O        -3.857281         1.619834         1.901280
 C        -2.196143         0.218291         0.203725
 C        -2.569015         0.747380        -1.172420
 C        -2.046013         2.100996        -1.035801
 C        -1.637870         2.147288         0.420671
 H         0.818466         0.125052         0.222989
 H        -1.239573         0.107632         2.773730
 H        -0.780625         1.895353         2.744057
 H        -4.385578         0.875842         1.713683
 H        -2.209847        -0.863355         0.349679
 H        -2.164059         0.228237        -2.068625
 H        -3.745361         0.775639        -1.405012
 H        -1.289929         2.541415        -1.777566
 H        -2.834046         2.816417        -1.204889
 H        -1.565370         3.121035         0.833101
