19
Iteration:  1349charge 0 multiplicity 1
 O         0.569313         0.707604         0.213796
 C        -0.750691         0.976236         0.664838
 C        -1.155919         0.998407         2.181009
 C        -2.471296         1.279029         1.300556
 O        -3.820225         1.612643         1.668347
 C        -2.193322         0.199668         0.263066
 C        -2.714055         0.777840        -1.148083
 C        -2.310143         2.220669        -0.955575
 C        -1.674759         2.157848         0.399258
 H         1.013744         1.483714        -0.303217
 H        -1.162681         0.085228         2.778480
 H        -0.818156         1.794387         2.696998
 H        -4.155206         0.903212         2.148774
 H        -2.387373        -0.866976         0.466795
 H        -2.203670         0.218984        -1.963859
 H        -3.792637         0.616485        -1.118570
 H        -1.627256         2.539031        -1.787608
 H        -3.230051         2.867628        -0.994902
 H        -1.374382         3.089493         0.810371
