19
Iteration:  4495
 O         0.481738         0.816168         0.247879
 C        -0.802831         1.003159         0.692310
 C        -1.285075         1.161203         2.190786
 C        -2.506009         1.322465         1.281216
 O        -3.798994         1.599861         1.638103
 C        -2.152173         0.161456         0.363444
 C        -2.565323         0.530250        -0.974563
 C        -2.274026         2.053963        -1.107168
 C        -1.653016         2.228323         0.284828
 H         0.285901         0.953805        -0.784755
 H        -1.045360         0.257638         2.759008
 H        -0.882649         1.965857         2.834684
 H        -3.738304         2.160550         2.428464
 H        -2.029558        -0.892632         0.603451
 H        -1.839112         0.026127        -1.673986
 H        -3.589690         0.266758        -1.139499
 H        -1.673424         2.337324        -1.979763
 H        -3.169672         2.691804        -1.269170
 H        -1.380829         3.217612         0.586656
