19
Iteration:  4381
 O         0.507123         0.731696         0.330557
 C        -0.770862         1.095092         0.697882
 C        -1.254472         1.147307         2.131611
 C        -2.454339         1.354208         1.226607
 O        -3.767786         1.601784         1.789939
 C        -2.083039         0.243035         0.314718
 C        -2.639678         0.519457        -1.065254
 C        -2.315508         2.042179        -1.089292
 C        -1.705012         2.312588         0.295805
 H         0.520829         0.257835        -0.495888
 H        -1.282211         0.137789         2.610677
 H        -0.764392         1.938199         2.746820
 H        -4.337509         1.065371         1.223782
 H        -2.094212        -0.694314         0.893629
 H        -2.005258         0.047143        -1.802795
 H        -3.741072         0.281669        -1.221116
 H        -1.736503         2.275023        -1.890510
 H        -3.215007         2.596271        -1.403301
 H        -1.490860         3.374872         0.588205
