19
Iteration:   118charge 0 multiplicity 1
 O         0.483322         0.626050         0.194868
 C        -0.793489         0.987285         0.676268
 C        -1.263110         0.928678         2.093321
 C        -2.526419         1.288405         1.219301
 O        -3.826469         1.469493         1.687558
 C        -2.109153         0.240156         0.239420
 C        -2.519464         0.761536        -1.107702
 C        -2.314431         2.311447        -0.888358
 C        -1.616396         2.294149         0.476401
 H         0.579864         0.961853        -0.682886
 H        -1.371052        -0.063325         2.646208
 H        -0.880688         1.730122         2.739667
 H        -3.810960         2.300244         2.276758
 H        -2.221741        -0.835515         0.493214
 H        -1.952166         0.415480        -1.993523
 H        -3.623607         0.619884        -1.231158
 H        -1.840892         2.736473        -1.819640
 H        -3.292159         2.802824        -0.668548
 H        -1.382135         3.223419         0.926013
