19
Iteration:  1740
 O         0.424320         0.818968         0.105461
 C        -0.818491         0.990369         0.673398
 C        -1.209898         0.946807         2.184342
 C        -2.521799         1.357406         1.354727
 O        -3.874865         1.604342         1.825453
 C        -2.101129         0.254926         0.329277
 C        -2.550976         0.650963        -1.137134
 C        -2.210587         2.212989        -1.111143
 C        -1.654058         2.236962         0.352395
 H         0.526216        -0.152554        -0.027129
 H        -1.269188        -0.010230         2.558566
 H        -0.804604         1.631200         2.967289
 H        -4.165566         0.775383         2.332055
 H        -2.220610        -0.868079         0.572431
 H        -1.914715         0.204089        -1.927965
 H        -3.603029         0.450132        -1.354644
 H        -1.354119         2.369233        -1.773196
 H        -2.992955         2.942062        -1.302412
 H        -1.192139         3.268728         0.619630
