19
Iteration:  2848charge 0 multiplicity 1
 O         0.516373         0.669153         0.162847
 C        -0.789118         1.090227         0.698057
 C        -1.228855         0.956361         2.173916
 C        -2.508068         1.284483         1.310558
 O        -3.803687         1.687201         1.774998
 C        -2.100769         0.188593         0.251894
 C        -2.497893         0.681151        -1.159183
 C        -2.321479         2.193824        -1.023141
 C        -1.742779         2.324110         0.435636
 H         0.237516         0.281293        -0.648629
 H        -1.365978        -0.001086         2.730702
 H        -0.918457         1.766755         2.868912
 H        -4.210441         0.781158         2.011720
 H        -2.225390        -0.873208         0.430112
 H        -1.772310         0.182417        -1.837398
 H        -3.458667         0.191634        -1.546089
 H        -1.600631         2.432396        -1.768570
 H        -3.244200         2.758432        -1.134898
 H        -1.569138         3.338803         0.949763
