19
Iteration:   824
 O         0.309539         0.809016         0.047584
 C        -0.903247         1.001160         0.660214
 C        -1.246955         0.919656         2.125474
 C        -2.476147         1.257190         1.264369
 O        -3.722465         1.601483         1.812776
 C        -2.192455         0.205462         0.250490
 C        -2.480989         0.774694        -1.108079
 C        -2.199081         2.237423        -0.942082
 C        -1.608628         2.243158         0.473122
 H         0.866611        -0.002673         0.348563
 H        -1.131661        -0.047315         2.637226
 H        -0.903395         1.673836         2.767527
 H        -4.317712         0.813944         1.592142
 H        -2.406075        -0.909489         0.530418
 H        -1.812204         0.338599        -1.902032
 H        -3.535455         0.450174        -1.519196
 H        -1.513159         2.625830        -1.711112
 H        -3.068455         2.894740        -0.960361
 H        -1.282986         3.114832         1.076146
