19
Iteration:  3973charge 0 multiplicity 1
 O         0.416673         0.794295         0.116842
 C        -0.868039         0.878688         0.654632
 C        -1.255500         1.006911         2.187315
 C        -2.491911         1.343714         1.323425
 O        -3.849032         1.498560         1.821482
 C        -2.108298         0.227566         0.245042
 C        -2.496082         0.727215        -1.154312
 C        -2.140043         2.225150        -0.994377
 C        -1.720878         2.274237         0.448918
 H         0.496044         0.002218        -0.308106
 H        -1.298036         0.067733         2.702944
 H        -0.985319         1.774601         2.942226
 H        -4.228759         2.123215         1.248127
 H        -2.268587        -0.839353         0.547569
 H        -1.962409         0.274095        -2.000768
 H        -3.586743         0.556831        -1.206044
 H        -1.197791         2.265860        -1.547952
 H        -2.949298         2.872363        -1.322458
 H        -1.133889         3.189233         0.719525
