19
Iteration:  3435charge 0 multiplicity 1
 O         0.406231         0.679753         0.183050
 C        -0.881470         1.007682         0.595652
 C        -1.238662         0.980848         2.119530
 C        -2.489790         1.244502         1.344867
 O        -3.801203         1.439087         1.861575
 C        -2.183186         0.293612         0.271669
 C        -2.603989         0.809584        -1.142023
 C        -2.183136         2.260593        -1.020310
 C        -1.595589         2.305997         0.324943
 H         0.937827         0.904226         0.996978
 H        -1.199459         0.035264         2.719988
 H        -0.720874         1.808881         2.645128
 H        -4.395593         1.201351         1.008827
 H        -2.392132        -0.749176         0.645660
 H        -1.824886         0.165401        -1.617111
 H        -3.579996         0.422920        -1.379343
 H        -1.383630         2.444690        -1.803912
 H        -2.932478         2.996605        -1.254600
 H        -1.084165         3.205185         0.703743
