19
Iteration:  4474charge 0 multiplicity 1
 O         0.491105         0.884343         0.188408
 C        -0.809123         1.048744         0.669566
 C        -1.177230         0.998005         2.175501
 C        -2.502776         1.441431         1.335971
 O        -3.890915         1.620158         1.684254
 C        -2.154033         0.245148         0.395375
 C        -2.531983         0.391321        -1.071304
 C        -2.226994         1.974689        -1.049389
 C        -1.712296         2.250584         0.324003
 H         0.368489         1.039108        -0.744363
 H        -1.357748         0.013655         2.626247
 H        -0.709918         1.667346         2.900927
 H        -3.860266         2.540613         2.070577
 H        -2.459782        -0.705478         0.831965
 H        -1.842295        -0.168110        -1.788515
 H        -3.571451         0.357600        -1.275433
 H        -1.532743         2.390291        -1.823690
 H        -2.983067         2.591473        -1.455322
 H        -1.281295         3.175453         0.651776
