19
Iteration:  3600
 O         0.454132         0.630762         0.239679
 C        -0.870556         0.988991         0.657947
 C        -1.347540         0.939131         2.154385
 C        -2.470641         1.387523         1.291969
 O        -3.791972         1.379657         1.981978
 C        -2.129018         0.280455         0.206641
 C        -2.593469         0.772374        -1.227009
 C        -2.203078         2.297534        -1.041661
 C        -1.538787         2.284512         0.263648
 H         1.051014         1.300596         0.437528
 H        -1.552448         0.027375         2.683932
 H        -1.043126         1.729154         2.870286
 H        -4.476118         1.651817         1.440901
 H        -2.365381        -0.785462         0.431792
 H        -1.999102         0.194052        -1.994557
 H        -3.677454         0.599817        -1.497159
 H        -1.428922         2.599654        -1.819366
 H        -3.008807         2.992621        -1.105680
 H        -1.252785         3.278311         0.652665
