19
Iteration:  3977charge 0 multiplicity 1
 O         0.456826         0.778947         0.139915
 C        -0.860012         0.938969         0.675371
 C        -1.234911         0.986684         2.150386
 C        -2.542099         1.351600         1.336321
 O        -3.845284         1.480445         1.829421
 C        -2.142766         0.226356         0.281655
 C        -2.511192         0.733766        -1.165865
 C        -2.134256         2.200840        -1.023465
 C        -1.736341         2.281427         0.433368
 H         0.570266        -0.131383        -0.387162
 H        -1.241548        -0.003415         2.674173
 H        -0.835507         1.740236         2.805056
 H        -4.287082         2.234267         1.304665
 H        -2.325416        -0.855441         0.490753
 H        -1.835745         0.390363        -1.948812
 H        -3.614270         0.553989        -1.232566
 H        -1.216746         2.295309        -1.600176
 H        -2.893932         2.961913        -1.319505
 H        -1.168547         3.201229         0.768907
