19
Iteration:  1339charge 0 multiplicity 1
 O         0.605331         0.687987         0.155422
 C        -0.744673         0.921265         0.608045
 C        -1.307999         0.981071         2.166507
 C        -2.498747         1.323867         1.363454
 O        -3.821520         1.621294         1.712729
 C        -2.093930         0.224771         0.227171
 C        -2.652448         0.667550        -1.110158
 C        -2.308381         2.214563        -0.971502
 C        -1.710078         2.296339         0.454245
 H         0.768273         1.428064        -0.534060
 H        -1.328264        -0.044068         2.571006
 H        -0.843825         1.630363         2.744831
 H        -4.102887         0.961557         2.252382
 H        -2.332389        -0.825311         0.634793
 H        -2.184665         0.126922        -1.924558
 H        -3.716988         0.606637        -1.333128
 H        -1.530416         2.601869        -1.670691
 H        -3.124366         2.976793        -0.994730
 H        -1.344318         3.207349         0.819938
