19
Iteration:  1557charge 0 multiplicity 1
 O         0.486614         0.633002         0.121998
 C        -0.806335         1.043015         0.665009
 C        -1.272504         0.936488         2.172438
 C        -2.465233         1.304300         1.329582
 O        -3.747652         1.610699         1.649688
 C        -2.065566         0.271717         0.289845
 C        -2.703362         0.664206        -1.034071
 C        -2.309065         2.239572        -1.051711
 C        -1.683316         2.312402         0.435489
 H         0.845181         1.478317         0.118099
 H        -1.183901        -0.154522         2.530807
 H        -0.934684         1.468457         3.042904
 H        -4.120652         0.791891         2.136708
 H        -2.174533        -0.706500         0.578917
 H        -1.953761         0.229511        -1.704985
 H        -3.730780         0.424917        -1.206928
 H        -1.532664         2.369023        -1.814208
 H        -3.106506         2.985086        -1.320421
 H        -1.265211         3.129615         0.916054
