19
Iteration:  4735
 O         0.458522         0.878212         0.168015
 C        -0.764647         1.037757         0.698547
 C        -1.220971         1.138379         2.194078
 C        -2.539290         1.300953         1.314953
 O        -3.843673         1.699951         1.617899
 C        -2.082406         0.146507         0.336113
 C        -2.531220         0.456739        -1.070573
 C        -2.278918         2.043619        -1.010567
 C        -1.714717         2.247099         0.379264
 H         0.392292         0.244692        -0.620052
 H        -1.281312         0.142510         2.740831
 H        -0.879190         1.992834         2.797231
 H        -3.858563         1.684789         2.572881
 H        -2.133878        -0.871761         0.715288
 H        -1.885670        -0.079578        -1.785121
 H        -3.501656         0.061331        -1.273669
 H        -1.513785         2.288988        -1.752005
 H        -3.039023         2.759230        -1.447318
 H        -1.550657         3.257889         0.683218
