19
Iteration:  4132
 O         0.432626         0.684828         0.262433
 C        -0.854937         0.966198         0.646190
 C        -1.202929         1.073988         2.101120
 C        -2.575688         1.291272         1.280427
 O        -3.789922         1.571334         1.822358
 C        -2.144728         0.244812         0.222614
 C        -2.517354         0.691378        -1.138687
 C        -2.153354         2.164327        -1.086329
 C        -1.771613         2.263476         0.338782
 H         0.970640         1.407496         0.327390
 H        -1.254881         0.103763         2.593494
 H        -0.796741         1.847853         2.762805
 H        -3.882048         1.385470         2.774934
 H        -2.161149        -0.782497         0.565305
 H        -2.024664         0.005466        -1.833083
 H        -3.536772         0.421217        -1.371471
 H        -1.327450         2.421626        -1.800470
 H        -3.097979         2.699032        -1.232822
 H        -1.528780         3.217178         0.793300
