19
Iteration:  4814
 O         0.540239         0.780477         0.225850
 C        -0.810769         1.035604         0.667978
 C        -1.239230         1.173980         2.133312
 C        -2.590900         1.354394         1.311958
 O        -3.829976         1.595261         1.884195
 C        -2.050906         0.183760         0.336536
 C        -2.640988         0.552158        -1.097493
 C        -2.250085         2.093920        -1.184098
 C        -1.669538         2.262926         0.214407
 H         0.859154         0.282937         0.962541
 H        -1.174997         0.350137         2.939923
 H        -0.920212         2.068036         2.693595
 H        -4.426443         1.080636         1.339692
 H        -1.991879        -0.758526         0.896054
 H        -1.983539         0.060978        -1.873770
 H        -3.623231         0.233149        -1.347563
 H        -1.461710         2.008663        -1.991541
 H        -3.205154         2.695568        -1.240265
 H        -1.405108         3.268202         0.579588
