19
Iteration:  3202
 O         0.493520         0.697222         0.288005
 C        -0.860087         0.903950         0.634602
 C        -1.327583         0.966720         2.159727
 C        -2.472635         1.363229         1.323149
 O        -3.764502         1.388741         1.877170
 C        -2.220223         0.232648         0.229903
 C        -2.510474         0.787816        -1.175209
 C        -2.194273         2.302333        -1.041289
 C        -1.624386         2.302615         0.353227
 H         0.601443         0.366632        -0.568536
 H        -1.146562         0.077973         2.721417
 H        -0.913856         1.909277         2.537738
 H        -4.456866         2.107960         1.544234
 H        -2.511241        -0.806582         0.436173
 H        -1.870912         0.393560        -1.987921
 H        -3.581203         0.660380        -1.452513
 H        -1.777233         2.675181        -1.961414
 H        -3.224340         2.762735        -1.050740
 H        -1.259502         3.328536         0.655136
