19
Iteration:  2773charge 0 multiplicity 1
 O         0.519663         0.763092         0.281153
 C        -0.815935         0.955424         0.701000
 C        -1.214789         0.914405         2.100252
 C        -2.538446         1.329177         1.267758
 O        -3.785255         1.670285         1.736575
 C        -2.102514         0.176891         0.216509
 C        -2.666200         0.679193        -1.090260
 C        -2.218181         2.197026        -1.033582
 C        -1.709938         2.264756         0.387047
 H         0.684712         1.269659        -0.576625
 H        -1.045343        -0.036917         2.606149
 H        -0.891796         1.698633         2.788726
 H        -4.165989         0.963348         2.437989
 H        -2.058226        -0.884930         0.487973
 H        -2.369592         0.067166        -1.892531
 H        -3.771882         0.490234        -1.188078
 H        -1.398311         2.451720        -1.771720
 H        -3.143704         2.731521        -1.221573
 H        -1.394326         3.291140         0.773788
