19
Iteration:  1851charge 0 multiplicity 1
 O         0.567247         0.769414         0.213179
 C        -0.794887         1.000360         0.685579
 C        -1.203140         1.025044         2.182421
 C        -2.484571         1.220311         1.278061
 O        -3.804663         1.667745         1.672268
 C        -2.071846         0.161329         0.217840
 C        -2.754730         0.707315        -1.129294
 C        -2.301251         2.214708        -0.951595
 C        -1.659108         2.213410         0.377732
 H         0.846583        -0.171761         0.346281
 H        -0.943539         0.244692         2.828088
 H        -0.887664         1.975316         2.560255
 H        -4.326127         0.891701         1.759777
 H        -2.103405        -0.932382         0.470420
 H        -2.556178         0.307728        -2.116347
 H        -3.827483         0.626577        -1.085287
 H        -1.704075         2.702877        -1.647480
 H        -3.154449         2.876262        -0.770007
 H        -1.303331         3.155408         0.863299
