19
Iteration:  4873
 O         0.525600         0.743637         0.180593
 C        -0.823949         1.049866         0.659166
 C        -1.256165         1.090134         2.184360
 C        -2.517134         1.395462         1.337413
 O        -3.875437         1.614947         1.684654
 C        -2.061023         0.224132         0.311441
 C        -2.527471         0.463635        -1.069208
 C        -2.271716         1.994182        -1.047111
 C        -1.673795         2.262481         0.360586
 H         0.810336         1.585247        -0.285587
 H        -1.256243         0.137355         2.624174
 H        -0.959953         1.936703         2.814483
 H        -4.203609         2.470964         2.047205
 H        -2.220930        -0.715456         0.859389
 H        -1.944792        -0.044099        -1.816444
 H        -3.624637         0.147036        -1.134134
 H        -1.704902         2.270270        -1.881814
 H        -3.120412         2.548099        -1.176053
 H        -1.597793         3.333314         0.573971
