19
Iteration:   670charge 0 multiplicity 1
 O         0.390345         0.746057        -0.047413
 C        -0.811090         0.979940         0.660955
 C        -1.218478         0.907914         2.136331
 C        -2.593531         1.208541         1.311142
 O        -3.914955         1.548076         1.791178
 C        -2.121448         0.261317         0.243694
 C        -2.529000         0.768831        -1.031117
 C        -2.145723         2.241878        -0.928377
 C        -1.656215         2.219503         0.448987
 H         1.274603         0.763603         0.465936
 H        -1.271872        -0.072470         2.666140
 H        -0.828880         1.660365         2.781811
 H        -3.841109         2.434840         1.886405
 H        -2.020256        -0.860402         0.536547
 H        -1.977082         0.258151        -1.870678
 H        -3.604124         0.485143        -1.275472
 H        -1.287742         2.453118        -1.692523
 H        -2.862632         3.139721        -1.150883
 H        -1.294111         3.143084         0.955415
