19
Iteration:  2640
 O         0.539715         0.783855         0.236821
 C        -0.819259         0.921927         0.717940
 C        -1.242414         0.997840         2.168309
 C        -2.516800         1.308216         1.257523
 O        -3.745287         1.668107         1.741448
 C        -2.255552         0.141658         0.219262
 C        -2.539435         0.669021        -1.153800
 C        -2.306074         2.257056        -0.970687
 C        -1.640161         2.240581         0.361822
 H         0.670102         0.353065        -0.662280
 H        -1.220450         0.099375         2.816453
 H        -0.848564         1.806809         2.778557
 H        -4.081430         0.851120         2.358799
 H        -2.393136        -0.948803         0.490794
 H        -1.862627         0.327024        -1.829364
 H        -3.588803         0.530931        -1.585913
 H        -1.987047         2.684728        -1.938572
 H        -3.377178         2.623166        -0.858432
 H        -1.178264         3.187638         0.884983
