19
Iteration:  4150
 O         0.418634         0.710022         0.199182
 C        -0.808844         1.082061         0.663847
 C        -1.313935         0.962911         2.130806
 C        -2.528494         1.386516         1.325218
 O        -3.770030         1.597959         1.885962
 C        -2.090233         0.207642         0.300610
 C        -2.553387         0.579725        -1.188197
 C        -2.233631         2.142371        -1.165240
 C        -1.672092         2.329821         0.359842
 H         1.016707         1.047733         0.787315
 H        -1.267701        -0.060824         2.604629
 H        -1.112410         1.812521         2.777678
 H        -4.144257         0.734919         2.179608
 H        -2.190536        -0.859274         0.593916
 H        -1.996547         0.152151        -2.007331
 H        -3.628845         0.355284        -1.456962
 H        -1.375996         2.420030        -1.741169
 H        -2.861798         2.947435        -1.574208
 H        -1.410240         3.406561         0.662325
