19
Iteration:  2328charge 0 multiplicity 1
 O         0.582121         0.809610         0.219318
 C        -0.788778         0.921805         0.685086
 C        -1.264041         0.934384         2.131751
 C        -2.540795         1.240352         1.222312
 O        -3.703036         1.711283         1.699707
 C        -2.229571         0.169273         0.202875
 C        -2.529885         0.702671        -1.171310
 C        -2.385116         2.227885        -0.932403
 C        -1.684192         2.252487         0.440705
 H         0.902278        -0.189982         0.118090
 H        -1.094608         0.024665         2.720627
 H        -1.038114         1.914105         2.552245
 H        -4.011405         1.198110         2.446879
 H        -2.442399        -0.792914         0.662727
 H        -1.990930         0.200343        -1.964066
 H        -3.576582         0.529309        -1.399883
 H        -1.860651         2.882048        -1.687720
 H        -3.393911         2.581239        -0.814247
 H        -1.481288         3.115941         1.015236
