19
Iteration:  3260
 O         0.498512         0.850866         0.199402
 C        -0.803847         0.900853         0.622494
 C        -1.326011         0.892190         2.201340
 C        -2.548336         1.294831         1.255641
 O        -3.779824         1.579984         1.776165
 C        -2.179254         0.213803         0.252083
 C        -2.614726         0.695307        -1.099586
 C        -2.166681         2.297853        -0.958544
 C        -1.595974         2.231546         0.417106
 H         0.292678         0.395451        -0.712641
 H        -1.187308        -0.153749         2.652011
 H        -0.921470         1.636061         2.903590
 H        -4.447234         1.356166         1.189166
 H        -2.112576        -0.873785         0.474017
 H        -2.181264         0.257905        -2.035471
 H        -3.683480         0.540776        -1.246668
 H        -1.342424         2.567102        -1.684560
 H        -2.903037         3.090469        -0.943723
 H        -1.190291         3.151933         0.827781
