19
Iteration:   896
 O         0.489700         0.829746         0.213810
 C        -0.796526         0.912874         0.614553
 C        -1.194229         0.928410         2.176010
 C        -2.499299         1.258470         1.307894
 O        -3.748863         1.599817         1.734170
 C        -2.133783         0.161310         0.142238
 C        -2.704535         0.848049        -1.131027
 C        -2.250866         2.262203        -0.974815
 C        -1.695414         2.198620         0.430448
 H         0.919901        -0.065674         0.424539
 H        -1.195454        -0.034727         2.762642
 H        -0.706538         1.761834         2.811292
 H        -4.122815         0.957215         2.465144
 H        -2.374967        -0.852542         0.212517
 H        -2.414522         0.363035        -2.057262
 H        -3.731367         0.741485        -1.147646
 H        -1.598145         2.491164        -1.856093
 H        -3.110897         2.969472        -1.178942
 H        -1.218643         3.138522         0.917513
