19
Iteration:   117
 O         0.476493         0.626991         0.195321
 C        -0.798303         0.995423         0.682834
 C        -1.263771         0.928082         2.082071
 C        -2.521259         1.282377         1.217670
 O        -3.821221         1.474326         1.688266
 C        -2.102411         0.241731         0.236957
 C        -2.517792         0.759958        -1.106118
 C        -2.317124         2.311646        -0.884325
 C        -1.619424         2.286937         0.484789
 H         0.569674         0.918846        -0.658048
 H        -1.348425        -0.064187         2.628081
 H        -0.916352         1.753184         2.711639
 H        -3.792043         2.272325         2.234567
 H        -2.231967        -0.849539         0.512703
 H        -1.972447         0.422254        -2.006626
 H        -3.622066         0.604852        -1.235917
 H        -1.801159         2.740198        -1.837471
 H        -3.302888         2.822931        -0.674981
 H        -1.381116         3.244486         0.931422
