19
Iteration:  3358charge 0 multiplicity 1
 O         0.511370         0.724763         0.220718
 C        -0.891870         0.894362         0.638621
 C        -1.223771         0.876130         2.114878
 C        -2.547491         1.439587         1.370847
 O        -3.788631         1.522818         1.849043
 C        -2.209432         0.265367         0.201667
 C        -2.494997         0.738847        -1.159515
 C        -2.250416         2.230829        -0.972591
 C        -1.670793         2.210215         0.386886
 H         0.730937         1.641730        -0.189231
 H        -1.246610        -0.029063         2.785746
 H        -0.750594         1.704924         2.625585
 H        -4.358362         1.858569         1.180386
 H        -2.410530        -0.819140         0.348275
 H        -1.719037         0.201378        -1.774510
 H        -3.451335         0.384549        -1.542312
 H        -1.542749         2.551047        -1.789277
 H        -3.161169         2.735128        -1.165550
 H        -1.188503         3.111667         0.756891
