19
Iteration:  4599
 O         0.440602         0.838091         0.161195
 C        -0.836209         1.088413         0.648301
 C        -1.206430         1.148378         2.224706
 C        -2.527056         1.291810         1.387270
 O        -3.828220         1.652981         1.627211
 C        -2.093943         0.116225         0.324258
 C        -2.519343         0.485219        -1.058490
 C        -2.207516         2.045073        -1.014446
 C        -1.779199         2.218348         0.422686
 H         0.405741         0.536623        -0.697990
 H        -1.309746         0.213675         2.737138
 H        -0.774359         2.046538         2.659038
 H        -3.898031         2.583681         1.989517
 H        -1.952559        -0.986576         0.516474
 H        -1.930248        -0.096484        -1.811104
 H        -3.490966         0.034690        -1.457890
 H        -1.344190         2.274995        -1.670727
 H        -3.054330         2.678270        -1.309189
 H        -1.416410         3.310859         0.534580
