19
Iteration:  3398
 O         0.431966         0.714769         0.054346
 C        -0.789838         0.934459         0.655940
 C        -1.414645         0.887760         2.250346
 C        -2.511015         1.253077         1.298032
 O        -3.762703         1.674774         1.791941
 C        -1.953550         0.231077         0.198632
 C        -2.553477         0.715995        -1.077859
 C        -2.194645         2.205174        -0.987747
 C        -1.766438         2.250463         0.487696
 H         0.911440         1.514537        -0.092483
 H        -1.445973        -0.100715         2.699094
 H        -0.863289         1.637083         2.763391
 H        -4.550829         1.446563         1.139562
 H        -2.084910        -0.815474         0.426894
 H        -2.139950         0.327832        -2.023462
 H        -3.610825         0.447038        -1.190922
 H        -1.329629         2.510579        -1.505010
 H        -2.997980         2.969187        -1.069764
 H        -1.390281         3.263861         0.725548
