19
Iteration:   813charge 0 multiplicity 1
 O         0.357405         0.780223         0.019560
 C        -0.814876         0.960457         0.669487
 C        -1.221692         0.910863         2.151246
 C        -2.557729         1.177765         1.367117
 O        -3.723285         1.666142         1.808622
 C        -2.155667         0.189652         0.237942
 C        -2.429344         0.770092        -1.155928
 C        -2.199523         2.275294        -0.927001
 C        -1.773054         2.269903         0.461720
 H         0.628409        -0.214584         0.154099
 H        -1.110608        -0.049163         2.678608
 H        -1.012656         1.769014         2.695092
 H        -4.428709         1.114390         1.698207
 H        -2.073762        -0.979226         0.346544
 H        -1.750096         0.348799        -1.947666
 H        -3.577837         0.663576        -1.379938
 H        -1.431558         2.623170        -1.645668
 H        -3.139592         2.843429        -1.024006
 H        -1.426005         3.273262         0.828709
