19
Iteration:   946
 O         0.302842         0.821231         0.073154
 C        -0.860717         0.920768         0.707010
 C        -1.258356         0.822053         2.219895
 C        -2.485290         1.308295         1.355472
 O        -3.726808         1.614454         1.745796
 C        -2.079827         0.231618         0.239105
 C        -2.474513         0.748694        -1.201835
 C        -2.244923         2.319760        -1.003462
 C        -1.698165         2.229831         0.445370
 H         0.535856        -0.154979        -0.026120
 H        -1.169419        -0.221269         2.676743
 H        -0.772799         1.635508         2.740090
 H        -3.922178         1.356598         2.572573
 H        -2.172981        -0.874792         0.581922
 H        -1.821450         0.276455        -1.968575
 H        -3.586990         0.468554        -1.524126
 H        -1.485412         2.713808        -1.655924
 H        -3.129848         2.913072        -1.235553
 H        -1.472101         3.127597         0.902228
