19
Iteration:  3311charge 0 multiplicity 1
 O         0.424925         0.572091         0.281564
 C        -0.764490         1.059634         0.591346
 C        -1.343738         0.999142         2.112298
 C        -2.546962         1.233017         1.309987
 O        -3.742075         1.518402         1.937263
 C        -2.016729         0.216010         0.170886
 C        -2.561840         0.723225        -1.188030
 C        -2.220680         2.273508        -1.021764
 C        -1.735123         2.381365         0.449344
 H         0.687733         0.998223        -0.576151
 H        -1.348358         0.009381         2.549117
 H        -0.979613         1.702536         2.852041
 H        -4.441976         1.671419         1.190805
 H        -1.959296        -0.869365         0.377022
 H        -2.033473         0.340084        -2.070769
 H        -3.641244         0.558697        -1.372653
 H        -1.429889         2.473438        -1.741309
 H        -3.095371         2.864953        -1.390303
 H        -1.405449         3.337549         0.919604
