19
Iteration:  1405charge 0 multiplicity 1
 O         0.546632         0.658687         0.043624
 C        -0.728994         0.990228         0.696630
 C        -1.287670         0.902395         2.219102
 C        -2.515697         1.322889         1.327058
 O        -3.814177         1.609113         1.779553
 C        -2.091282         0.290649         0.272536
 C        -2.637542         0.676556        -1.115192
 C        -2.271205         2.225641        -1.051310
 C        -1.719344         2.404337         0.376910
 H         1.306514         0.960042         0.575731
 H        -1.333578        -0.166428         2.579178
 H        -0.882906         1.564738         2.854960
 H        -4.306999         0.728087         2.113306
 H        -2.278688        -0.796808         0.693590
 H        -2.194587        -0.002523        -1.860756
 H        -3.693716         0.293828        -1.150410
 H        -1.562844         2.461236        -1.901627
 H        -3.256147         2.775564        -1.251582
 H        -1.490543         3.327033         0.770614
