19
Iteration:  3456
 O         0.486440         0.573139         0.191692
 C        -0.808507         0.995977         0.713922
 C        -1.328528         1.051454         2.166827
 C        -2.547166         1.397888         1.211047
 O        -3.752771         1.400798         1.970676
 C        -2.114956         0.268957         0.150733
 C        -2.581935         0.777420        -1.192111
 C        -2.177878         2.266068        -1.105612
 C        -1.759707         2.360871         0.400883
 H         1.192839         0.309997         0.859328
 H        -1.157865         0.056674         2.608756
 H        -0.777124         1.765170         2.722751
 H        -4.442259         1.405951         1.316189
 H        -2.107820        -0.822168         0.356432
 H        -2.200383         0.099694        -1.984131
 H        -3.630423         0.541829        -1.155316
 H        -1.467246         2.724804        -1.811539
 H        -3.086033         2.838966        -1.109198
 H        -1.238763         3.242854         0.764280
