19
Iteration:    43
 O         0.353004         0.826760         0.103483
 C        -0.866027         0.934222         0.727424
 C        -1.262278         0.833274         2.230929
 C        -2.481653         1.283233         1.280191
 O        -3.784280         1.408040         1.833745
 C        -2.147802         0.256238         0.227781
 C        -2.592838         0.846969        -1.190071
 C        -2.074244         2.286217        -1.086532
 C        -1.654524         2.245538         0.437944
 H         1.048538         0.437904         0.612065
 H        -1.384076        -0.200093         2.677267
 H        -0.832194         1.649445         2.793918
 H        -4.054499         2.298505         1.886078
 H        -2.450870        -0.766215         0.362882
 H        -2.218765         0.273803        -2.069184
 H        -3.703413         0.862614        -1.325679
 H        -1.317464         2.528462        -1.730664
 H        -2.912729         2.933796        -1.264283
 H        -1.323018         3.163760         0.838807
