19
Iteration:  4500
 O         0.491568         0.787204         0.250328
 C        -0.813590         1.024914         0.702140
 C        -1.263375         1.193824         2.208728
 C        -2.499080         1.310767         1.298730
 O        -3.824483         1.597496         1.649565
 C        -2.086249         0.179254         0.340821
 C        -2.577610         0.523216        -1.011723
 C        -2.310454         2.062030        -1.064374
 C        -1.659874         2.204688         0.249816
 H         0.399165         0.903743        -0.651154
 H        -1.202570         0.228779         2.760047
 H        -0.948591         2.136656         2.686208
 H        -3.694887         2.126326         2.476140
 H        -2.131599        -0.912750         0.541754
 H        -1.937859         0.053592        -1.748803
 H        -3.644648         0.241569        -1.232255
 H        -1.616744         2.298859        -1.926178
 H        -3.106966         2.766589        -1.335039
 H        -1.265709         3.187482         0.653567
