19
Iteration:  3462charge 0 multiplicity 1
 O         0.511883         0.556957         0.168104
 C        -0.800247         0.997214         0.714169
 C        -1.361364         1.036617         2.151101
 C        -2.565088         1.296437         1.238118
 O        -3.734419         1.436503         1.982004
 C        -2.032491         0.304982         0.112180
 C        -2.596321         0.783982        -1.186007
 C        -2.192313         2.260947        -1.063395
 C        -1.767667         2.379525         0.370268
 H         1.079354         0.275717         0.981277
 H        -1.369750         0.102279         2.761680
 H        -0.873538         1.927136         2.707368
 H        -4.654704         1.535317         1.411243
 H        -2.178920        -0.754615         0.302226
 H        -2.029432         0.101590        -1.838869
 H        -3.716369         0.500783        -1.113364
 H        -1.499674         2.662488        -1.800130
 H        -3.118055         2.908510        -1.319574
 H        -1.287132         3.296878         0.780618
