19
Iteration:  1289
 O         0.444731         0.785060         0.125052
 C        -0.846704         0.908310         0.607671
 C        -1.199204         0.960764         2.125544
 C        -2.546710         1.293068         1.340891
 O        -3.817660         1.674665         1.923649
 C        -2.243662         0.176221         0.206458
 C        -2.388766         0.701726        -1.208158
 C        -2.212704         2.230237        -1.025518
 C        -1.789262         2.253242         0.479237
 H         0.585177         0.260483        -0.690109
 H        -1.228981         0.174324         2.902339
 H        -0.788546         1.996313         2.601717
 H        -3.983432         0.807455         2.489359
 H        -2.349978        -0.873381         0.422746
 H        -1.612098         0.150945        -1.821411
 H        -3.315905         0.448166        -1.773154
 H        -1.333277         2.480972        -1.608961
 H        -2.979764         2.939002        -1.275482
 H        -1.308481         3.159255         0.974690
