19
Iteration:  3792
 O         0.403117         0.864803         0.097484
 C        -0.863272         0.984548         0.689514
 C        -1.229437         0.941193         2.211925
 C        -2.537324         1.190439         1.303190
 O        -3.751063         1.585794         1.763988
 C        -2.130956         0.194568         0.210868
 C        -2.553323         0.737189        -1.133812
 C        -2.129101         2.188875        -0.938426
 C        -1.706759         2.208203         0.440158
 H         0.274816        -0.117171         0.017224
 H        -1.099509        -0.096192         2.708179
 H        -1.214248         1.731607         2.952964
 H        -4.010751         2.398895         1.157142
 H        -2.260597        -0.891471         0.129392
 H        -2.000359         0.347934        -2.007714
 H        -3.641264         0.753959        -1.148637
 H        -1.236303         2.382482        -1.536534
 H        -2.871947         3.022636        -1.221977
 H        -1.567317         3.091818         1.077749
