19
Iteration:  1228
 O         0.524019         0.735500         0.130822
 C        -0.766411         0.937704         0.628636
 C        -1.178216         0.903746         2.073856
 C        -2.509642         1.337714         1.287026
 O        -3.871514         1.619987         1.638680
 C        -2.077491         0.209771         0.303953
 C        -2.674831         0.719904        -1.010097
 C        -2.261197         2.277602        -0.963065
 C        -1.687047         2.281117         0.433259
 H         0.953388         0.308996         0.840389
 H        -1.325281        -0.173579         2.463585
 H        -0.758992         1.556438         2.755256
 H        -4.232181         0.749229         2.129543
 H        -2.132003        -0.887455         0.545561
 H        -2.411246         0.209982        -1.926480
 H        -3.736244         0.847268        -0.958768
 H        -1.459635         2.633681        -1.698816
 H        -3.132083         3.000920        -1.088252
 H        -1.344817         3.236860         0.881341
