19
Iteration:   907
 O         0.613091         0.841802         0.137015
 C        -0.782690         0.876724         0.670025
 C        -1.240590         0.883539         2.119350
 C        -2.516554         1.243054         1.333378
 O        -3.866690         1.619976         1.757760
 C        -2.177886         0.213644         0.215613
 C        -2.710768         0.760653        -1.133300
 C        -2.260618         2.317937        -1.013873
 C        -1.624665         2.213091         0.403436
 H         0.965305        -0.004839         0.241924
 H        -1.335874        -0.098085         2.653843
 H        -0.829986         1.729777         2.767085
 H        -4.071344         1.007575         2.583464
 H        -2.229702        -0.813274         0.423250
 H        -2.207570         0.290016        -1.970460
 H        -3.733450         0.641580        -1.152087
 H        -1.441591         2.675682        -1.691083
 H        -3.088973         3.067061        -0.887403
 H        -1.202447         3.193308         0.880240
