19
Iteration:  3457charge 0 multiplicity 1
 O         0.493585         0.568788         0.189957
 C        -0.807383         0.997588         0.717670
 C        -1.337107         1.049663         2.167550
 C        -2.550370         1.386140         1.209058
 O        -3.752232         1.405199         1.971688
 C        -2.105014         0.274707         0.140385
 C        -2.587330         0.780598        -1.192013
 C        -2.178562         2.262971        -1.099654
 C        -1.765002         2.365750         0.399174
 H         1.161151         0.308713         0.840251
 H        -1.170982         0.066680         2.624741
 H        -0.768662         1.787574         2.719657
 H        -4.427925         1.421620         1.363795
 H        -2.109477        -0.830943         0.347250
 H        -2.179982         0.086194        -1.943550
 H        -3.612119         0.525267        -1.134691
 H        -1.464906         2.736055        -1.823797
 H        -3.085496         2.841266        -1.130788
 H        -1.234566         3.235033         0.758108
