19
Iteration:   299charge 0 multiplicity 1
 O         0.592249         0.763636         0.234977
 C        -0.786592         0.957184         0.653570
 C        -1.176758         0.899001         2.163217
 C        -2.500733         1.317015         1.357750
 O        -3.861111         1.488316         1.708554
 C        -2.285245         0.339197         0.273290
 C        -2.563274         0.717883        -1.177233
 C        -2.296973         2.248486        -1.010815
 C        -1.621729         2.263007         0.347029
 H         0.434121         0.195341        -0.643322
 H        -1.150012        -0.149651         2.570584
 H        -0.935155         1.622446         2.995474
 H        -3.815620         1.884224         2.728960
 H        -2.776828        -0.649293         0.617757
 H        -1.844447         0.221804        -1.884126
 H        -3.536836         0.434943        -1.641699
 H        -1.825646         2.774788        -1.787275
 H        -3.287056         2.640095        -0.817973
 H        -1.178566         3.266752         0.791347
