19
Iteration:  3808
 O         0.401664         0.854471         0.013597
 C        -0.798670         0.944069         0.687201
 C        -1.365585         0.919370         2.222540
 C        -2.535651         1.212320         1.363523
 O        -3.878417         1.567261         1.768819
 C        -2.070876         0.146830         0.237754
 C        -2.553621         0.762250        -1.132048
 C        -2.109536         2.255883        -1.005036
 C        -1.647450         2.234892         0.504706
 H         0.809929        -0.048182        -0.309418
 H        -1.305451         0.063264         2.828851
 H        -0.787070         1.706112         2.750101
 H        -3.983646         2.515336         1.387693
 H        -2.032783        -0.880303         0.618037
 H        -2.052953         0.185882        -1.934609
 H        -3.650808         0.613082        -1.176950
 H        -1.282512         2.552148        -1.688881
 H        -2.955077         2.868440        -1.120928
 H        -1.162147         3.142249         0.894092
