19
Iteration:  4870
 O         0.534494         0.738133         0.189505
 C        -0.841274         1.060369         0.649404
 C        -1.260999         1.108695         2.191348
 C        -2.503466         1.398853         1.343629
 O        -3.882276         1.608680         1.698920
 C        -2.064787         0.234464         0.290357
 C        -2.545193         0.450786        -1.074806
 C        -2.286078         1.992453        -1.010925
 C        -1.664909         2.248040         0.332365
 H         0.886579         1.645195        -0.219368
 H        -1.194852         0.077849         2.538964
 H        -0.941721         1.908390         2.911840
 H        -4.199813         2.515439         1.915974
 H        -2.189558        -0.731021         0.790497
 H        -1.894121        -0.043519        -1.807677
 H        -3.573956         0.228670        -1.090699
 H        -1.599959         2.264440        -1.890100
 H        -3.188047         2.567755        -1.284050
 H        -1.537618         3.259025         0.573906
