19
Iteration:  4221
 O         0.524475         0.813428         0.164199
 C        -0.776547         0.987621         0.680413
 C        -1.239958         1.036149         2.192570
 C        -2.474953         1.327953         1.319604
 O        -3.898711         1.627137         1.606004
 C        -2.050718         0.172745         0.386236
 C        -2.532469         0.573549        -1.074149
 C        -2.290371         2.140551        -1.031383
 C        -1.718179         2.264271         0.365663
 H         0.510337         0.179851        -0.489391
 H        -1.347359         0.057758         2.606437
 H        -1.004468         1.865100         2.908261
 H        -3.874867         1.930506         2.538818
 H        -2.079777        -0.792758         0.926021
 H        -2.289327         0.025856        -2.036820
 H        -3.608095         0.392512        -1.146408
 H        -1.703609         2.542256        -1.931974
 H        -3.210338         2.700120        -1.243672
 H        -1.400776         3.193477         0.783467
