19
Iteration:  3752charge 0 multiplicity 1
 O         0.495223         0.782581         0.218354
 C        -0.763197         0.977300         0.687333
 C        -1.345223         0.898241         2.119599
 C        -2.499498         1.381262         1.238290
 O        -3.846821         1.469374         1.975272
 C        -2.199513         0.254217         0.196940
 C        -2.588035         0.786636        -1.168373
 C        -2.232903         2.260408        -1.078328
 C        -1.516761         2.235603         0.357998
 H         0.999106         0.058714         0.666928
 H        -1.552903        -0.134847         2.313003
 H        -1.000092         1.646959         2.864141
 H        -4.503840         1.486334         1.335522
 H        -2.207580        -0.792785         0.525842
 H        -2.034596         0.193167        -1.959632
 H        -3.631774         0.529946        -1.440674
 H        -1.664391         2.687057        -1.939364
 H        -3.098170         2.870520        -1.050800
 H        -0.935376         3.077944         0.663830
