19
Iteration:  1485charge 0 multiplicity 1
 O         0.329359         0.688927         0.152624
 C        -0.848795         0.993629         0.683822
 C        -1.243007         0.876064         2.113414
 C        -2.481520         1.359911         1.288144
 O        -3.734197         1.656989         1.820122
 C        -2.095798         0.302861         0.237251
 C        -2.508998         0.604971        -1.176829
 C        -2.257617         2.208507        -1.051622
 C        -1.678706         2.320003         0.423048
 H         0.991883         1.356133         0.239894
 H        -1.197356        -0.136929         2.518153
 H        -1.016122         1.492890         2.947421
 H        -4.027315         0.785726         2.243751
 H        -2.039176        -0.853901         0.572099
 H        -1.958966        -0.034643        -1.864107
 H        -3.582338         0.358083        -1.070450
 H        -1.654597         2.645971        -1.875144
 H        -3.242569         2.669936        -1.113978
 H        -1.423644         3.370226         0.935773
