19
Iteration:  2488
 O         0.496154         0.825473         0.239079
 C        -0.857252         0.939107         0.666352
 C        -1.262797         0.885554         2.233435
 C        -2.449668         1.239211         1.358283
 O        -3.724487         1.729406         1.691603
 C        -2.178720         0.203289         0.257277
 C        -2.574864         0.686662        -1.194401
 C        -2.394169         2.248378        -1.014370
 C        -1.604526         2.175076         0.361856
 H         0.546137         0.293003        -0.669988
 H        -1.204434         0.002562         2.818052
 H        -0.963152         1.827749         2.618105
 H        -4.254989         1.092522         2.294169
 H        -2.181103        -0.893959         0.466238
 H        -1.634468         0.433556        -1.861656
 H        -3.471808         0.163587        -1.669845
 H        -1.725366         2.789116        -1.683628
 H        -3.271744         2.852135        -0.718689
 H        -1.317767         3.216056         0.806619
