19
Iteration:  1125charge 0 multiplicity 1
 O         0.320619         0.727980         0.175392
 C        -0.930966         0.880844         0.627594
 C        -1.307087         1.032547         2.110801
 C        -2.486893         1.244124         1.253530
 O        -3.707963         1.615305         1.885797
 C        -2.133595         0.195893         0.188384
 C        -2.386916         0.791349        -1.188663
 C        -2.187226         2.263785        -0.950699
 C        -1.764227         2.217375         0.459963
 H         0.351066         0.168813        -0.696799
 H        -1.389025         0.227443         2.743432
 H        -0.837894         1.910490         2.697634
 H        -3.696851         1.057259         2.584242
 H        -2.208537        -0.835168         0.401566
 H        -1.637220         0.416263        -1.995126
 H        -3.384987         0.530585        -1.654854
 H        -1.353136         2.696438        -1.625240
 H        -3.118404         2.943021        -1.036671
 H        -1.170187         3.057086         0.905789
