19
Iteration:  1756
 O         0.352880         0.817849         0.050406
 C        -0.863324         0.967879         0.716812
 C        -1.210102         1.027668         2.177602
 C        -2.604130         1.245925         1.301824
 O        -3.811545         1.644557         1.879506
 C        -2.176676         0.181281         0.212617
 C        -2.422556         0.679267        -1.171038
 C        -2.098462         2.173527        -1.069608
 C        -1.676974         2.281639         0.427909
 H         0.597021        -0.190154         0.104203
 H        -0.940074         0.165597         2.957459
 H        -0.853787         1.958148         2.616561
 H        -4.053082         0.999542         2.716192
 H        -2.248089        -0.850145         0.382355
 H        -1.920476         0.019158        -1.876891
 H        -3.493255         0.579389        -1.479550
 H        -1.466106         2.607093        -1.875977
 H        -3.129648         2.579417        -1.161684
 H        -1.529659         3.232338         0.890609
