19
Iteration:  2557charge 0 multiplicity 1
 O         0.494415         0.708509         0.214728
 C        -0.794928         0.863796         0.696407
 C        -1.194223         1.069165         2.137552
 C        -2.542148         1.341702         1.289765
 O        -3.887553         1.523477         1.832873
 C        -2.173482         0.245856         0.265114
 C        -2.642252         0.696505        -1.155396
 C        -2.132829         2.294077        -1.056467
 C        -1.636275         2.221342         0.376442
 H         0.692943         1.249684        -0.610903
 H        -1.153065         0.275590         2.929410
 H        -0.785783         2.063365         2.391631
 H        -4.100223         0.562565         2.242215
 H        -2.390168        -0.771541         0.539493
 H        -2.192233         0.031299        -2.049034
 H        -3.708881         0.749012        -1.220837
 H        -1.403198         2.410179        -1.875876
 H        -2.975663         2.954188        -1.182752
 H        -1.299425         3.145211         0.750630
