19
Iteration:  4376
 O         0.503744         0.751810         0.303495
 C        -0.782322         1.039683         0.686237
 C        -1.289303         1.193146         2.143448
 C        -2.442377         1.354805         1.283885
 O        -3.742855         1.629048         1.760449
 C        -2.049214         0.208581         0.324125
 C        -2.639289         0.509646        -1.103413
 C        -2.348561         2.073234        -1.076652
 C        -1.718831         2.285170         0.315299
 H         0.542511         0.256000        -0.561226
 H        -1.367851         0.243989         2.691124
 H        -0.848697         1.885334         2.835493
 H        -4.272634         0.971402         1.263655
 H        -2.164614        -0.822101         0.720907
 H        -1.952346        -0.094353        -1.761424
 H        -3.689291         0.291740        -1.064994
 H        -1.462762         2.407939        -1.881429
 H        -3.224867         2.666267        -1.366262
 H        -1.487843         3.312663         0.546215
