19
Iteration:   842
 O         0.496372         0.798067         0.034099
 C        -0.816009         0.877373         0.652880
 C        -1.260773         0.858803         2.161968
 C        -2.504853         1.400910         1.390601
 O        -3.847460         1.536251         1.833787
 C        -2.208276         0.293353         0.279649
 C        -2.583290         0.711411        -1.199451
 C        -2.201761         2.308746        -0.987033
 C        -1.634432         2.283149         0.410569
 H         1.190910         0.181457         0.474673
 H        -1.481672        -0.107765         2.762819
 H        -0.702655         1.580429         2.896565
 H        -4.313276         0.633073         1.689877
 H        -2.333668        -0.729727         0.512709
 H        -1.990226         0.170011        -1.959490
 H        -3.622853         0.552032        -1.384776
 H        -1.508620         2.629737        -1.774062
 H        -3.113932         2.884104        -0.939458
 H        -0.995918         3.236306         0.631722
