19
Iteration:  1594charge 0 multiplicity 1
 O         0.347777         0.737208         0.056692
 C        -0.902349         0.923354         0.661170
 C        -1.237493         1.055318         2.180544
 C        -2.557994         1.284182         1.368250
 O        -3.778262         1.663525         1.892807
 C        -2.121441         0.179740         0.206040
 C        -2.463565         0.682869        -1.215950
 C        -2.192572         2.232010        -1.061049
 C        -1.695653         2.228475         0.434451
 H         1.130218         0.989574         0.516575
 H        -1.088191         0.068306         2.649029
 H        -0.834701         1.939582         2.695543
 H        -4.290545         0.873915         2.409754
 H        -2.211493        -0.972851         0.503243
 H        -1.731875         0.176559        -1.854232
 H        -3.433075         0.244477        -1.589097
 H        -1.324127         2.466391        -1.771135
 H        -3.102620         2.859578        -1.244748
 H        -1.181914         3.091077         0.917492
