19
Iteration:  2114charge 0 multiplicity 1
 O         0.384076         0.799500         0.073812
 C        -0.843652         0.985456         0.669808
 C        -1.264401         0.900999         2.155380
 C        -2.533735         1.355364         1.281002
 O        -3.822806         1.673410         1.818528
 C        -2.106972         0.201631         0.252545
 C        -2.418985         0.630214        -1.083612
 C        -2.267521         2.267884        -1.062532
 C        -1.683468         2.252995         0.385663
 H         0.681914        -0.171471         0.170210
 H        -1.291492        -0.170183         2.537004
 H        -1.021578         1.670324         2.959453
 H        -3.780966         0.844968         2.437806
 H        -2.178788        -0.835781         0.595637
 H        -1.638156         0.192976        -1.657111
 H        -3.362625         0.430435        -1.418287
 H        -1.470149         2.516527        -1.670213
 H        -3.181807         2.869113        -1.051965
 H        -1.317417         3.141601         0.941692
