19
Iteration:  4594
 O         0.499113         0.827786         0.179208
 C        -0.822649         1.049292         0.652520
 C        -1.243346         1.179136         2.194850
 C        -2.576977         1.283463         1.391667
 O        -3.813659         1.654643         1.659230
 C        -2.081605         0.088281         0.334958
 C        -2.542055         0.506029        -1.070923
 C        -2.240720         2.071186        -1.016123
 C        -1.776976         2.228387         0.354672
 H         0.405229         0.430187        -0.819706
 H        -1.168532         0.182325         2.726248
 H        -0.793793         2.021629         2.767748
 H        -4.033231         2.498463         2.012322
 H        -1.905631        -0.917047         0.675922
 H        -1.757184        -0.102414        -1.669885
 H        -3.479092         0.166312        -1.442057
 H        -1.424916         2.354612        -1.722877
 H        -2.990906         2.774981        -1.416943
 H        -1.411012         3.177756         0.689061
