19
Iteration:  3234charge 0 multiplicity 1
 O         0.522703         0.672353         0.243141
 C        -0.818307         1.033705         0.599516
 C        -1.301742         0.845988         2.175599
 C        -2.507088         1.276695         1.356296
 O        -3.810752         1.599200         1.843138
 C        -2.018538         0.222515         0.150393
 C        -2.580074         0.718241        -1.150687
 C        -2.193728         2.267839        -1.030377
 C        -1.781306         2.353665         0.477956
 H         0.309492         0.134644        -0.609060
 H        -1.056606        -0.090925         2.633097
 H        -0.935709         1.649133         2.835186
 H        -4.360273         1.549046         1.110886
 H        -1.974079        -0.861167         0.423415
 H        -2.237771         0.384507        -2.131044
 H        -3.684182         0.558932        -1.236606
 H        -1.352504         2.478511        -1.700662
 H        -3.081480         2.993738        -1.181531
 H        -1.602073         3.409464         0.855154
