19
Iteration:  4764
 O         0.435702         0.845860         0.104425
 C        -0.784040         1.024530         0.709590
 C        -1.248828         1.185782         2.198897
 C        -2.572460         1.293020         1.375113
 O        -3.871140         1.710678         1.703015
 C        -2.053412         0.148724         0.339191
 C        -2.444613         0.512359        -1.033592
 C        -2.216618         2.064664        -1.122853
 C        -1.742680         2.231774         0.347738
 H         0.421873        -0.013952        -0.519420
 H        -1.263954         0.308813         2.790990
 H        -0.914041         2.059206         2.811190
 H        -4.153166         1.109601         2.441688
 H        -2.104279        -0.918602         0.618771
 H        -1.981093        -0.150669        -1.764859
 H        -3.507114         0.122184        -1.197517
 H        -1.345183         2.326106        -1.774105
 H        -3.069160         2.645656        -1.421914
 H        -1.365480         3.265765         0.635213
