19
Iteration:  2133charge 0 multiplicity 1
 O         0.531074         0.708235         0.054908
 C        -0.804063         0.988271         0.669335
 C        -1.278752         0.956421         2.175501
 C        -2.563390         1.311282         1.384046
 O        -3.822083         1.616475         1.711139
 C        -2.133424         0.293521         0.267423
 C        -2.474925         0.678532        -1.162837
 C        -2.329492         2.180178        -0.992568
 C        -1.669613         2.311904         0.457552
 H         0.708015        -0.198192         0.300870
 H        -1.366519         0.059690         2.740813
 H        -0.730883         1.612560         2.854448
 H        -3.982098         1.179760         2.567153
 H        -2.251393        -0.772294         0.577640
 H        -1.723816         0.403672        -1.919599
 H        -3.525457         0.446019        -1.598047
 H        -1.743285         2.715072        -1.816798
 H        -3.328701         2.587678        -0.950310
 H        -1.353964         3.310717         0.707186
