19
Iteration:  3971charge 0 multiplicity 1
 O         0.394203         0.808610         0.107963
 C        -0.863181         0.858500         0.649204
 C        -1.271292         1.014499         2.205222
 C        -2.473368         1.336679         1.320846
 O        -3.844212         1.504649         1.819879
 C        -2.092680         0.221208         0.224390
 C        -2.495042         0.722771        -1.141515
 C        -2.142453         2.234041        -0.979591
 C        -1.703724         2.273725         0.453995
 H         0.465199        -0.037865        -0.320886
 H        -1.336486         0.063370         2.733383
 H        -1.034826         1.816877         2.981924
 H        -4.248227         2.130674         1.163199
 H        -2.237136        -0.791504         0.565351
 H        -2.040824         0.183412        -2.035353
 H        -3.551867         0.557232        -1.231933
 H        -1.180288         2.315509        -1.556906
 H        -2.967264         2.842384        -1.335951
 H        -1.167745         3.145638         0.717576
