19
Iteration:  1081
 O         0.492914         0.775137         0.123974
 C        -0.807383         0.963769         0.647184
 C        -1.258808         0.780692         2.086749
 C        -2.508793         1.397312         1.317257
 O        -3.794801         1.603089         1.729949
 C        -2.146893         0.240805         0.268275
 C        -2.614427         0.754590        -1.062465
 C        -2.242588         2.271870        -0.973466
 C        -1.648856         2.306555         0.411935
 H         0.697767        -0.188843         0.461755
 H        -1.366046        -0.233941         2.354712
 H        -0.717485         1.340274         2.938448
 H        -4.098688         0.894038         2.232977
 H        -2.262639        -0.772015         0.588286
 H        -2.027049         0.252469        -1.890837
 H        -3.669523         0.441437        -1.297024
 H        -1.456837         2.527428        -1.761865
 H        -3.106902         2.988988        -1.181449
 H        -1.426799         3.299194         0.850590
