19
Iteration:   682
 O         0.411214         0.741442        -0.030705
 C        -0.812119         0.907872         0.668228
 C        -1.211814         0.878416         2.141415
 C        -2.531513         1.354004         1.318757
 O        -3.924285         1.465854         1.759646
 C        -2.129282         0.203053         0.312752
 C        -2.587146         0.744187        -1.064621
 C        -2.129313         2.283094        -0.968561
 C        -1.601107         2.300039         0.470634
 H         1.088694         1.169649         0.590139
 H        -1.180884        -0.136807         2.599904
 H        -0.670164         1.600030         2.743551
 H        -4.189360         2.473521         1.687585
 H        -2.448170        -0.912950         0.510255
 H        -2.108944         0.208801        -1.923255
 H        -3.721830         0.747292        -1.102289
 H        -1.301331         2.572748        -1.725159
 H        -3.129944         2.889997        -1.103023
 H        -1.106581         3.185340         0.819536
