19
Iteration:  3820
 O         0.473629         0.871149        -0.011073
 C        -0.817585         0.851474         0.703988
 C        -1.263273         0.878133         2.213473
 C        -2.543086         1.396650         1.279588
 O        -3.910508         1.502206         1.768374
 C        -2.118913         0.243992         0.311379
 C        -2.531703         0.683285        -1.121659
 C        -2.149067         2.250920        -0.971426
 C        -1.601788         2.242989         0.465827
 H         0.594882        -0.057937         0.004205
 H        -1.526742        -0.045810         2.645419
 H        -0.988519         1.686616         2.907330
 H        -4.183607         2.461660         1.658956
 H        -2.318426        -0.843434         0.439294
 H        -2.052353         0.228160        -1.994190
 H        -3.655601         0.607797        -1.310970
 H        -1.378920         2.580513        -1.692567
 H        -2.946460         2.923609        -1.149758
 H        -1.246702         3.088860         1.108772
