19
Iteration:  4812charge 0 multiplicity 1
 O         0.539715         0.784045         0.226134
 C        -0.807930         1.029016         0.664163
 C        -1.239807         1.171894         2.149400
 C        -2.587771         1.360075         1.304854
 O        -3.842065         1.596142         1.891630
 C        -2.056679         0.197866         0.342478
 C        -2.625624         0.552905        -1.086941
 C        -2.244880         2.091082        -1.194243
 C        -1.661427         2.261745         0.196174
 H         0.816382         0.246477         0.905770
 H        -1.120186         0.298426         2.917177
 H        -0.903361         2.056483         2.702922
 H        -4.412528         1.012629         1.364723
 H        -2.036456        -0.758152         0.870999
 H        -2.008708         0.045332        -1.853766
 H        -3.606381         0.212596        -1.346323
 H        -1.492948         2.043982        -2.015693
 H        -3.231640         2.740621        -1.272058
 H        -1.474280         3.227332         0.642015
