19
Iteration:   504charge 0 multiplicity 1
 O         0.447720         0.824222         0.090087
 C        -0.769491         1.046445         0.695590
 C        -1.249810         0.905265         2.209316
 C        -2.494283         1.224960         1.356437
 O        -3.851320         1.578524         1.872254
 C        -2.144807         0.155926         0.200996
 C        -2.581265         0.716435        -1.220975
 C        -2.171268         2.225539        -1.024981
 C        -1.727280         2.240400         0.397678
 H         0.592645        -0.200728         0.167196
 H        -1.091733        -0.065660         2.593301
 H        -0.895028         1.690278         2.874647
 H        -3.795216         2.541408         2.306935
 H        -2.150679        -0.909767         0.360539
 H        -2.122876         0.170066        -2.076707
 H        -3.640500         0.596918        -1.375642
 H        -1.272029         2.468678        -1.697502
 H        -2.900704         2.991636        -1.389410
 H        -1.610585         3.267594         0.781377
