19
Iteration:  1610
 O         0.373155         0.738283         0.037270
 C        -0.877402         0.982503         0.653548
 C        -1.232704         1.023795         2.167699
 C        -2.528097         1.194212         1.300004
 O        -3.683715         1.676090         1.903515
 C        -2.269017         0.181918         0.272460
 C        -2.397609         0.690260        -1.187554
 C        -2.173776         2.204517        -1.033106
 C        -1.793996         2.216910         0.380637
 H         0.894551         0.805832         0.778895
 H        -1.308428         0.179287         2.894245
 H        -1.064522         2.098587         2.551259
 H        -3.987990         0.912001         2.417796
 H        -2.405379        -0.854477         0.459394
 H        -1.571746         0.216032        -1.787789
 H        -3.327434         0.551035        -1.713047
 H        -1.392599         2.641914        -1.588072
 H        -3.019974         2.805945        -1.306609
 H        -1.578524         3.258236         0.900219
