19
Iteration:  3651
 O         0.448578         0.755848         0.049527
 C        -0.888816         0.943178         0.674899
 C        -1.240865         0.902963         2.158307
 C        -2.504469         1.272148         1.357348
 O        -3.849895         1.628118         1.786758
 C        -2.146016         0.225584         0.271240
 C        -2.533023         0.767902        -1.195041
 C        -2.147768         2.218361        -0.974474
 C        -1.664333         2.245857         0.493651
 H         1.235499         0.830249         0.613566
 H        -1.341061        -0.154074         2.622413
 H        -0.854324         1.708444         2.782475
 H        -4.529524         1.265098         1.126840
 H        -2.308213        -0.859388         0.382362
 H        -1.896781         0.182269        -1.912319
 H        -3.620794         0.649093        -1.249793
 H        -1.488762         2.602234        -1.742026
 H        -3.117221         2.783459        -1.095030
 H        -1.155629         3.114008         0.969169
