19
Iteration:  1693charge 0 multiplicity 1
 O         0.557291         0.834787         0.202195
 C        -0.851523         0.985105         0.661766
 C        -1.223716         1.070974         2.190930
 C        -2.451982         1.200586         1.417969
 O        -3.830412         1.690108         1.627782
 C        -2.069250         0.110668         0.225405
 C        -2.751742         0.778171        -1.057781
 C        -2.304322         2.197491        -1.008754
 C        -1.631776         2.156268         0.333100
 H         0.920951        -0.136628         0.328016
 H        -1.007908         0.077374         2.648933
 H        -0.643856         1.844218         2.742952
 H        -4.343299         0.731866         1.871492
 H        -2.029696        -1.102533         0.173709
 H        -2.355941         0.325326        -1.976880
 H        -3.880495         0.683990        -0.967907
 H        -1.528693         2.460114        -1.869013
 H        -3.173443         2.888253        -0.880070
 H        -1.174424         3.026687         0.804125
