19
Iteration:  4792
 O         0.462361         0.831983         0.217544
 C        -0.807276         1.072005         0.701750
 C        -1.238692         1.174771         2.107079
 C        -2.524675         1.398964         1.331850
 O        -3.787574         1.579618         1.813551
 C        -2.190322         0.231996         0.349025
 C        -2.493819         0.516447        -1.087215
 C        -2.219262         2.029590        -1.175890
 C        -1.710856         2.297235         0.284733
 H         0.640295        -0.167706         0.246557
 H        -1.375566         0.243865         2.771568
 H        -0.876884         1.921446         2.814120
 H        -4.237729         0.691660         1.788889
 H        -2.366960        -0.792503         0.761952
 H        -2.001745        -0.261787        -1.731873
 H        -3.559364         0.407914        -1.230761
 H        -1.337906         2.290763        -1.840485
 H        -3.276705         2.376614        -1.219554
 H        -1.181909         3.244426         0.317102
