19
Iteration:  1771
 O         0.362951         0.796475         0.023561
 C        -0.874221         0.970814         0.628693
 C        -1.304210         1.097510         2.132377
 C        -2.520342         1.278858         1.350988
 O        -3.752621         1.654486         1.880058
 C        -2.172729         0.164143         0.258962
 C        -2.401509         0.644683        -1.238804
 C        -2.165636         2.192012        -0.962819
 C        -1.794189         2.180564         0.432556
 H         0.753268        -0.071572         0.239226
 H        -1.357258         0.164882         2.692003
 H        -0.991430         2.051838         2.710523
 H        -3.830867         1.173823         2.690389
 H        -2.274047        -0.957152         0.577870
 H        -1.553352         0.338586        -1.880619
 H        -3.395746         0.361551        -1.659152
 H        -1.151801         2.526769        -1.426298
 H        -2.865546         2.984669        -1.261564
 H        -1.313373         3.049494         0.938743
