19
Iteration:  2088
 O         0.435965         0.890180         0.089645
 C        -0.861440         0.941664         0.652100
 C        -1.264133         1.011928         2.160060
 C        -2.511634         1.237669         1.439525
 O        -3.777372         1.691990         1.883612
 C        -2.194689         0.155879         0.194915
 C        -2.506999         0.695356        -1.254314
 C        -2.120546         2.139518        -1.028350
 C        -1.746234         2.193088         0.390784
 H         0.833392         0.022788         0.073656
 H        -1.206339         0.116376         2.740107
 H        -1.008576         1.830209         2.810017
 H        -4.350657         0.936406         2.215413
 H        -2.423363        -0.863698         0.574573
 H        -1.850780         0.107769        -1.934835
 H        -3.625801         0.810895        -1.576018
 H        -1.081972         2.375991        -1.469846
 H        -2.894104         2.874322        -1.131625
 H        -1.461701         3.157992         0.777110
