19
Iteration:  3194charge 0 multiplicity 1
 O         0.484590         0.688951         0.251692
 C        -0.855900         0.849644         0.663789
 C        -1.292065         1.022085         2.228981
 C        -2.541191         1.397447         1.377418
 O        -3.775392         1.377564         1.872651
 C        -2.204233         0.242150         0.168058
 C        -2.522996         0.741400        -1.257403
 C        -2.249782         2.326858        -0.999138
 C        -1.599627         2.307665         0.297493
 H         0.868530         0.600392        -0.582884
 H        -1.330733         0.053765         2.815528
 H        -0.824317         1.859384         2.784684
 H        -4.309923         2.288875         1.727108
 H        -2.351482        -0.832275         0.325867
 H        -1.823524         0.091803        -1.826562
 H        -3.559664         0.551780        -1.484940
 H        -1.606228         2.892117        -1.739150
 H        -3.156478         2.808849        -1.153185
 H        -1.062984         3.136768         0.713766
