19
Iteration:   327charge 0 multiplicity 1
 O         0.464845         0.698227         0.262150
 C        -0.855055         0.971958         0.596702
 C        -1.290127         0.979160         2.085142
 C        -2.531696         1.285861         1.287332
 O        -3.796834         1.497019         1.893252
 C        -2.095164         0.206253         0.207331
 C        -2.552478         0.717097        -1.174896
 C        -2.195998         2.264347        -1.006342
 C        -1.699872         2.272589         0.400220
 H         0.541245         0.960733        -0.719548
 H        -1.330422         0.010980         2.552431
 H        -1.003849         1.703220         2.835661
 H        -3.666064         2.393009         2.413484
 H        -2.272510        -0.804842         0.444779
 H        -1.958292         0.323792        -1.991228
 H        -3.589687         0.539138        -1.456265
 H        -1.369493         2.572693        -1.728864
 H        -3.133279         2.857543        -1.112278
 H        -1.261709         3.115663         0.846550
