19
Iteration:  2705charge 0 multiplicity 1
 O         0.495433         0.671552         0.228737
 C        -0.881227         0.951949         0.626289
 C        -1.245691         1.040581         2.234901
 C        -2.466620         1.345531         1.341149
 O        -3.808812         1.588212         1.791604
 C        -2.141758         0.196403         0.239365
 C        -2.567062         0.666112        -1.165764
 C        -2.242830         2.226376        -1.068661
 C        -1.709401         2.306890         0.401090
 H         0.402346         0.974071        -0.645437
 H        -1.119942         0.086871         2.795917
 H        -0.775365         1.886824         2.757540
 H        -4.129367         0.825021         2.221510
 H        -2.021246        -0.898944         0.331362
 H        -2.012583         0.195910        -1.955649
 H        -3.594276         0.483515        -1.633771
 H        -1.529027         2.513159        -1.844010
 H        -3.089983         2.948858        -1.019458
 H        -1.062521         3.196656         0.683876
