19
Iteration:  3063
 O         0.520848         0.634162         0.315572
 C        -0.763367         1.057943         0.617781
 C        -1.293518         0.945964         2.129038
 C        -2.539764         1.254916         1.314078
 O        -3.814278         1.557023         1.878480
 C        -2.141394         0.253728         0.200809
 C        -2.594007         0.764781        -1.119644
 C        -2.222058         2.256060        -1.041328
 C        -1.693102         2.347781         0.295523
 H         0.591694         0.637849        -0.701261
 H        -1.212449        -0.077786         2.618491
 H        -0.950336         1.766400         2.821989
 H        -4.246065         0.717208         1.989463
 H        -2.035226        -0.847231         0.327373
 H        -1.984326         0.299399        -1.957197
 H        -3.636279         0.531323        -1.347519
 H        -1.373580         2.335746        -1.813748
 H        -3.123582         2.893967        -1.185937
 H        -1.366385         3.288039         0.710414
