19
Iteration:   383
 O         0.459266         0.776228         0.099542
 C        -0.830046         0.877838         0.678364
 C        -1.250132         0.892826         2.160825
 C        -2.503838         1.412563         1.288210
 O        -3.860808         1.441106         1.755307
 C        -2.161847         0.230128         0.256988
 C        -2.633640         0.713596        -1.075224
 C        -2.146105         2.200393        -0.987526
 C        -1.535224         2.283425         0.445928
 H         0.623045         1.636527        -0.178195
 H        -1.582535         0.034587         2.653561
 H        -0.746527         1.665017         2.750864
 H        -4.186258         2.284487         1.830608
 H        -2.347307        -0.773770         0.491232
 H        -2.202764         0.171703        -1.905433
 H        -3.688138         0.825263        -1.130943
 H        -1.554431         2.647131        -1.871610
 H        -3.109752         2.777310        -1.099306
 H        -1.046646         3.083752         0.881037
