19
Iteration:  1470charge 0 multiplicity 1
 O         0.391058         0.672706         0.025837
 C        -0.841451         1.023255         0.635393
 C        -1.319030         0.962019         2.139076
 C        -2.563987         1.319653         1.316701
 O        -3.798189         1.677587         1.920701
 C        -2.087065         0.198437         0.263872
 C        -2.434424         0.641101        -1.151971
 C        -2.220429         2.185225        -1.022945
 C        -1.708426         2.292840         0.401399
 H         1.143528         1.176875         0.358547
 H        -1.341437        -0.129339         2.589339
 H        -0.797426         1.638207         2.856815
 H        -4.207618         0.887152         2.512286
 H        -2.144606        -0.869127         0.554513
 H        -1.639519         0.403621        -1.905677
 H        -3.453899         0.389814        -1.565604
 H        -1.428016         2.567492        -1.726637
 H        -3.156626         2.819582        -1.184062
 H        -1.368782         3.217073         0.693733
