19
Iteration:   535charge 0 multiplicity 1
 O         0.430749         0.911898         0.072813
 C        -0.804373         0.887245         0.633772
 C        -1.270851         0.884611         2.200302
 C        -2.444285         1.374961         1.373541
 O        -3.882432         1.476971         1.690249
 C        -2.169166         0.164962         0.316393
 C        -2.632016         0.707077        -1.037662
 C        -2.155401         2.232359        -0.998738
 C        -1.571611         2.269237         0.413840
 H         0.565762         0.256989        -0.553482
 H        -1.315007        -0.055812         2.692861
 H        -0.659177         1.565045         2.814745
 H        -4.202249         2.311390         1.866169
 H        -2.358774        -0.812960         0.552251
 H        -2.234697         0.168875        -1.912415
 H        -3.713228         0.605290        -1.098762
 H        -1.248855         2.359893        -1.676699
 H        -2.941474         2.988720        -1.143447
 H        -1.094185         3.317987         0.742171
