19
Iteration:  2106
 O         0.348455         0.840441         0.083022
 C        -0.881268         0.986174         0.713767
 C        -1.243694         0.916198         2.176002
 C        -2.561441         1.316143         1.279475
 O        -3.776412         1.676108         1.836004
 C        -2.128924         0.229706         0.243726
 C        -2.450186         0.616149        -1.179684
 C        -2.189607         2.201006        -1.055920
 C        -1.664098         2.243632         0.457370
 H         0.585484        -0.085051         0.173806
 H        -1.208799        -0.048144         2.764111
 H        -0.791573         1.686390         2.846580
 H        -3.909716         0.871071         2.421681
 H        -2.166942        -0.835889         0.455882
 H        -1.771673         0.185911        -1.980831
 H        -3.481273         0.410106        -1.538502
 H        -1.518342         2.620337        -1.826326
 H        -3.159160         2.799715        -1.223089
 H        -1.304321         3.210595         0.892605
