19
Iteration:  1437
 O         0.268137         0.738297         0.043031
 C        -0.874035         0.932996         0.672494
 C        -1.180538         1.060187         2.145438
 C        -2.583651         1.274759         1.289989
 O        -3.768718         1.621856         1.849159
 C        -2.174431         0.170590         0.231860
 C        -2.415274         0.646675        -1.187288
 C        -2.157245         2.216064        -0.981983
 C        -1.708211         2.290657         0.450713
 H         1.159089         0.794293         0.549853
 H        -1.022526         0.163277         2.900632
 H        -0.671166         1.947856         2.543198
 H        -4.048889         1.018407         2.463555
 H        -2.307730        -0.891178         0.555096
 H        -1.643411         0.335207        -1.960570
 H        -3.433294         0.323782        -1.565641
 H        -1.410955         2.697108        -1.676016
 H        -3.153193         2.769209        -1.116771
 H        -1.349248         3.151535         0.879569
