19
Iteration:  3452
 O         0.460385         0.592005         0.203110
 C        -0.814121         0.986188         0.689903
 C        -1.287490         1.044067         2.145296
 C        -2.534336         1.421368         1.246241
 O        -3.758750         1.388319         1.955157
 C        -2.140814         0.255057         0.200696
 C        -2.558831         0.756287        -1.193724
 C        -2.183096         2.278060        -1.113901
 C        -1.719151         2.340965         0.391539
 H         1.138002         0.392375         0.863991
 H        -1.195404         0.025831         2.573515
 H        -0.806792         1.806479         2.811331
 H        -4.487958         1.352713         1.201469
 H        -2.156719        -0.795154         0.420940
 H        -2.251471         0.218635        -2.123897
 H        -3.726945         0.656316        -1.271085
 H        -1.444994         2.661906        -1.791878
 H        -3.130042         2.884847        -1.097756
 H        -1.307523         3.295068         0.803408
