19
Iteration:  4286charge 0 multiplicity 1
 O         0.527423         0.713170         0.316616
 C        -0.804018         1.018569         0.570405
 C        -1.309992         1.213461         2.108689
 C        -2.556513         1.280679         1.323400
 O        -3.809596         1.534682         1.953217
 C        -2.132346         0.160087         0.324172
 C        -2.578768         0.568790        -1.182571
 C        -2.232007         2.029554        -1.085886
 C        -1.663177         2.317934         0.288503
 H         0.886460         1.099303        -0.471654
 H        -1.187567         0.393045         2.770928
 H        -0.950067         2.169277         2.574172
 H        -4.269076         2.171243         1.402782
 H        -2.193035        -0.904055         0.618396
 H        -1.850243         0.059689        -1.879564
 H        -3.626646         0.516903        -1.465042
 H        -1.645787         2.580861        -1.956448
 H        -2.997279         2.775120        -1.398257
 H        -1.329122         3.264695         0.654210
