19
Iteration:  4003
 O         0.506249         0.725085         0.329828
 C        -0.798690         1.075033         0.651755
 C        -1.237100         0.947534         2.090079
 C        -2.507644         1.290780         1.312993
 O        -3.856105         1.436516         1.925186
 C        -2.252945         0.281292         0.210290
 C        -2.573415         0.664928        -1.222739
 C        -2.151453         2.234163        -1.108862
 C        -1.673078         2.353317         0.333334
 H         0.677388        -0.158952        -0.231535
 H        -1.198104        -0.103103         2.418855
 H        -1.150812         1.686221         2.965650
 H        -3.801033         2.419227         2.173074
 H        -2.285249        -0.766917         0.414079
 H        -1.935614         0.065361        -1.970956
 H        -3.637211         0.617752        -1.226191
 H        -1.401403         2.548329        -1.909793
 H        -3.061511         2.846587        -1.300392
 H        -1.277498         3.266669         0.703620
