19
Iteration:  2019charge 0 multiplicity 1
 O         0.502946         0.744492         0.174628
 C        -0.708184         0.924980         0.675979
 C        -1.216989         1.006448         2.073609
 C        -2.479919         1.301780         1.269229
 O        -3.873012         1.596672         1.638635
 C        -2.095573         0.218713         0.276171
 C        -2.646036         0.730037        -1.049141
 C        -2.283551         2.259664        -0.929481
 C        -1.653886         2.252895         0.411345
 H         0.832402        -0.080911         0.417486
 H        -1.044659         0.132960         2.693099
 H        -0.971009         1.907370         2.604692
 H        -4.221709         0.809162         1.928800
 H        -2.275779        -0.813320         0.555845
 H        -2.290015         0.259172        -2.029357
 H        -3.742245         0.618223        -0.829132
 H        -1.645978         2.611494        -1.739007
 H        -3.305858         2.672490        -0.853709
 H        -1.398372         3.271826         0.808112
