19
Iteration:   596charge 0 multiplicity 1
 O         0.504294         0.681832         0.244145
 C        -0.779776         0.997468         0.700574
 C        -1.252999         0.977093         2.139136
 C        -2.496667         1.311989         1.314095
 O        -3.805740         1.440248         1.830813
 C        -2.140700         0.282368         0.176067
 C        -2.609160         0.774190        -1.182674
 C        -2.314198         2.253230        -1.078715
 C        -1.600013         2.292632         0.361704
 H         0.586725        -0.178039        -0.044557
 H        -1.166167         0.032241         2.753104
 H        -0.855957         1.824629         2.756407
 H        -3.712263         1.956286         2.675689
 H        -2.373060        -0.854195         0.353992
 H        -2.157166         0.270794        -2.044258
 H        -3.686705         0.528129        -1.375159
 H        -1.824192         2.800979        -1.893346
 H        -3.232203         2.916360        -0.979316
 H        -1.428149         3.251762         0.745624
