19
Iteration:  1885
 O         0.478388         0.798433         0.128343
 C        -0.767661         0.943436         0.692090
 C        -1.225963         0.875689         2.206191
 C        -2.496564         1.443199         1.372609
 O        -3.828630         1.545144         1.682404
 C        -2.116025         0.219143         0.303671
 C        -2.648301         0.725611        -1.080385
 C        -2.183558         2.227354        -1.106617
 C        -1.727483         2.298101         0.340319
 H         0.795577        -0.055397         0.260612
 H        -1.244048        -0.058266         2.643736
 H        -0.758088         1.547580         2.830782
 H        -4.040764         0.778322         2.072668
 H        -2.202233        -0.738124         0.814982
 H        -2.328941         0.108192        -1.898266
 H        -3.676961         0.701004        -0.865330
 H        -1.509259         2.536885        -1.787057
 H        -3.100809         2.803947        -1.159417
 H        -1.342201         3.273018         0.682047
