19
Iteration:   742
 O         0.568235         0.649304         0.308267
 C        -0.769155         0.937499         0.620276
 C        -1.227312         0.933794         2.101990
 C        -2.522798         1.278890         1.322225
 O        -3.845150         1.523654         1.810557
 C        -2.121037         0.232331         0.147932
 C        -2.683244         0.817977        -1.198223
 C        -2.271896         2.275527        -0.974934
 C        -1.707531         2.273869         0.389625
 H         0.721333         0.840649        -0.707930
 H        -1.201853        -0.038375         2.639960
 H        -0.629885         1.838834         2.599952
 H        -3.809296         1.772678         2.688662
 H        -2.238544        -0.778687         0.339802
 H        -2.190212         0.224677        -1.985357
 H        -3.723337         0.682214        -1.264354
 H        -1.465114         2.735480        -1.535287
 H        -3.139015         2.912426        -1.115628
 H        -1.258292         3.208762         0.845813
