19
Iteration:  3036charge 0 multiplicity 1
 O         0.447767         0.812003         0.230795
 C        -0.815935         0.800727         0.675631
 C        -1.252316         0.962985         2.145749
 C        -2.509721         1.386194         1.346088
 O        -3.782688         1.567994         1.829726
 C        -2.222666         0.200932         0.273210
 C        -2.499063         0.683769        -1.220973
 C        -2.191620         2.286111        -0.959246
 C        -1.675508         2.283513         0.338680
 H         0.345304         0.476416        -0.724444
 H        -1.188314         0.113841         2.804905
 H        -0.756024         1.816625         2.574686
 H        -4.287826         1.026677         1.200878
 H        -2.279176        -0.883891         0.533146
 H        -1.901385         0.259652        -2.011067
 H        -3.581117         0.547341        -1.489769
 H        -1.592721         2.679414        -1.700781
 H        -3.203107         2.684816        -0.931198
 H        -1.191393         3.127009         0.907708
