19
Iteration:  2910
 O         0.501818         0.726819         0.264552
 C        -0.760943         1.107172         0.657716
 C        -1.246574         0.923705         2.090399
 C        -2.531367         1.347120         1.367483
 O        -3.796608         1.643764         1.771820
 C        -2.076847         0.159437         0.181801
 C        -2.601600         0.693721        -1.092575
 C        -2.223422         2.133386        -1.098765
 C        -1.709154         2.267363         0.440968
 H         0.448249         0.771349        -0.679849
 H        -1.189663        -0.006233         2.649024
 H        -0.950398         1.621626         2.896976
 H        -4.406830         0.893807         2.136290
 H        -2.126249        -0.909138         0.451569
 H        -2.405869        -0.001327        -1.984868
 H        -3.674358         0.642100        -0.960066
 H        -1.473968         2.567584        -1.803122
 H        -3.122341         2.823829        -1.303246
 H        -1.572985         3.263986         0.765662
