19
Iteration:  1033
 O         0.618234         0.757769         0.116985
 C        -0.728218         0.960916         0.596055
 C        -1.229521         0.944534         2.082694
 C        -2.537655         1.267692         1.289664
 O        -3.869450         1.657693         1.761889
 C        -2.149784         0.121201         0.206322
 C        -2.717731         0.735898        -1.077613
 C        -2.213498         2.344442        -0.914970
 C        -1.682928         2.236597         0.480795
 H         1.151486         0.159864         0.530585
 H        -1.238898        -0.039236         2.772521
 H        -0.929266         1.613806         2.890444
 H        -4.574956         0.971111         1.601778
 H        -2.305472        -1.028177         0.423748
 H        -2.463604         0.235515        -2.013107
 H        -3.885304         0.710534        -1.196598
 H        -1.398591         2.500237        -1.542555
 H        -2.957128         3.031750        -1.180213
 H        -1.260388         3.045542         1.000498
