19
Iteration:   505
 O         0.445589         0.826578         0.088695
 C        -0.769253         1.046526         0.701892
 C        -1.250812         0.908858         2.201205
 C        -2.493139         1.220222         1.342727
 O        -3.845360         1.576849         1.866279
 C        -2.150071         0.164394         0.212656
 C        -2.581595         0.715486        -1.216493
 C        -2.167785         2.220106        -1.020279
 C        -1.729045         2.242057         0.406298
 H         0.575871        -0.168109         0.135167
 H        -1.103351        -0.076495         2.606298
 H        -0.894297         1.672328         2.887187
 H        -3.793916         2.547311         2.287071
 H        -2.137678        -0.942376         0.361134
 H        -2.154069         0.165091        -2.086789
 H        -3.646845         0.590553        -1.382706
 H        -1.272391         2.476533        -1.682717
 H        -2.893408         3.004933        -1.379123
 H        -1.585728         3.237937         0.749969
