19
Iteration:   715charge 0 multiplicity 1
 O         0.470685         0.601113         0.213591
 C        -0.766990         0.994008         0.686091
 C        -1.268640         0.920283         2.115757
 C        -2.504094         1.242560         1.260403
 O        -3.794141         1.431060         1.779385
 C        -2.096484         0.218690         0.196573
 C        -2.711724         0.835773        -1.061074
 C        -2.248604         2.302598        -0.992184
 C        -1.616466         2.351741         0.372605
 H         0.892747         1.458626        -0.163258
 H        -1.151832        -0.032100         2.652510
 H        -0.949706         1.706796         2.769242
 H        -3.918306         2.296183         2.042064
 H        -2.221902        -0.919472         0.446186
 H        -2.327606         0.290118        -1.956763
 H        -3.826016         0.606703        -1.124469
 H        -1.460742         2.536409        -1.795633
 H        -3.038268         3.099608        -1.283658
 H        -1.265915         3.211036         0.899871
