19
Iteration:  2877
 O         0.452753         0.896739         0.200481
 C        -0.877014         0.933075         0.637421
 C        -1.243771         0.946096         2.120985
 C        -2.470106         1.353625         1.382889
 O        -3.813677         1.683417         1.770223
 C        -2.163111         0.094271         0.271258
 C        -2.514185         0.697935        -1.132459
 C        -2.241452         2.190145        -0.982783
 C        -1.611527         2.181703         0.390655
 H         0.355688         0.470571        -0.712639
 H        -1.416520         0.079069         2.736398
 H        -0.836898         1.862317         2.528916
 H        -4.255805         0.903426         1.692392
 H        -2.439479        -0.965287         0.426749
 H        -1.773749         0.073319        -1.710328
 H        -3.505328         0.376557        -1.325073
 H        -1.605978         2.540529        -1.795419
 H        -3.222371         2.778824        -1.052020
 H        -1.066677         3.022544         0.742330
