19
Iteration:  2068charge 0 multiplicity 1
 O         0.455226         0.914074         0.104118
 C        -0.831672         0.926147         0.700634
 C        -1.246733         0.921870         2.117250
 C        -2.607598         1.277931         1.222607
 O        -3.798035         1.645979         1.877665
 C        -2.170160         0.177431         0.249393
 C        -2.603383         0.687497        -1.114620
 C        -2.093973         2.215063        -1.093005
 C        -1.672543         2.278036         0.430795
 H         0.864202        -0.069781         0.272964
 H        -1.243147         0.010532         2.727251
 H        -0.673902         1.778054         2.593454
 H        -4.485983         0.922994         2.219827
 H        -2.202753        -0.924626         0.484662
 H        -2.018594         0.157787        -1.814742
 H        -3.660445         0.443030        -1.052317
 H        -1.178200         2.187168        -1.718829
 H        -2.920668         2.838530        -1.309582
 H        -1.285229         3.079099         1.037015
