19
Iteration:  2228
 O         0.494715         0.908044         0.049657
 C        -0.801135         0.955708         0.681006
 C        -1.276807         0.958047         2.143921
 C        -2.557399         1.267552         1.290651
 O        -3.764493         1.630398         1.838109
 C        -2.222456         0.153334         0.285821
 C        -2.651802         0.695773        -1.177593
 C        -2.071561         2.198554        -1.017980
 C        -1.730398         2.239691         0.456126
 H         0.997531         0.052279         0.424021
 H        -1.123945         0.045083         2.781881
 H        -0.890655         1.757154         2.775840
 H        -4.516147         0.936678         1.718938
 H        -2.437579        -0.867961         0.631595
 H        -2.136954         0.107558        -1.951602
 H        -3.731340         0.675658        -1.275933
 H        -1.079703         2.117623        -1.506787
 H        -2.749084         3.002170        -1.340698
 H        -1.277300         3.122083         0.900538
