19
Iteration:  1463charge 0 multiplicity 1
 O         0.427705         0.686181        -0.020346
 C        -0.828676         0.949803         0.619262
 C        -1.316964         1.029248         2.177527
 C        -2.569568         1.304123         1.372382
 O        -3.810866         1.674401         1.925887
 C        -2.143355         0.194100         0.284550
 C        -2.418613         0.717975        -1.197845
 C        -2.201088         2.166061        -1.030823
 C        -1.762609         2.231954         0.399003
 H         1.280456         1.049664         0.404415
 H        -1.236823         0.042588         2.604245
 H        -0.915882         1.677631         2.894017
 H        -4.169747         0.996275         2.518492
 H        -2.129735        -0.956700         0.513866
 H        -1.558284         0.457277        -1.806139
 H        -3.367234         0.383380        -1.611128
 H        -1.406226         2.601534        -1.652359
 H        -3.097302         2.743606        -1.237841
 H        -1.386937         3.291513         0.699656
