19
Iteration:  2358charge 0 multiplicity 1
 O         0.459587         0.873317         0.179077
 C        -0.869183         0.902834         0.665585
 C        -1.309256         0.803555         2.102319
 C        -2.526611         1.364038         1.336467
 O        -3.778875         1.719998         1.768772
 C        -2.027772         0.145514         0.150938
 C        -2.598999         0.708142        -1.049950
 C        -2.265162         2.166899        -0.966081
 C        -1.659252         2.317268         0.333912
 H         0.898281         0.171147         0.525459
 H        -1.177845        -0.286590         2.550341
 H        -0.764647         1.452834         2.835427
 H        -4.197894         0.951567         2.141677
 H        -2.165309        -0.813789         0.660011
 H        -2.025807         0.310651        -1.966267
 H        -3.596597         0.437579        -1.227113
 H        -1.501866         2.377351        -1.737942
 H        -3.072624         2.918240        -1.182277
 H        -1.214217         3.278168         0.662469
