19
Iteration:  3543charge 0 multiplicity 1
 O         0.377359         0.690593         0.029226
 C        -0.815534         1.018368         0.735302
 C        -1.373238         0.842041         2.196818
 C        -2.477055         1.239804         1.324254
 O        -3.802367         1.659144         1.796480
 C        -2.005064         0.196452         0.189132
 C        -2.499997         0.751981        -1.162002
 C        -2.219582         2.211702        -0.954581
 C        -1.661522         2.266886         0.502759
 H         0.947960         1.552242         0.115637
 H        -1.246572        -0.166429         2.674539
 H        -1.119760         1.723738         2.735402
 H        -4.422555         2.107641         1.066086
 H        -1.982550        -0.906212         0.394895
 H        -2.094535         0.144721        -2.039012
 H        -3.581098         0.399700        -1.130059
 H        -1.438669         2.444341        -1.710223
 H        -3.130144         2.794469        -1.120979
 H        -1.506244         3.151521         1.134089
