19
Iteration:  4811charge 0 multiplicity 1
 O         0.537146         0.787761         0.224110
 C        -0.806432         1.027373         0.662033
 C        -1.240907         1.170615         2.157785
 C        -2.582732         1.362568         1.301358
 O        -3.846976         1.596308         1.894386
 C        -2.061513         0.204926         0.345350
 C        -2.615352         0.552309        -1.081912
 C        -2.244475         2.088669        -1.198184
 C        -1.658585         2.260637         0.189760
 H         0.823441         0.194638         0.918936
 H        -1.100553         0.285317         2.884037
 H        -0.893433         2.055699         2.703754
 H        -4.416074         0.980474         1.376274
 H        -2.063066        -0.768072         0.849748
 H        -2.021956         0.036252        -1.841160
 H        -3.617066         0.203515        -1.341610
 H        -1.516616         2.079008        -2.022625
 H        -3.215185         2.750310        -1.294407
 H        -1.499150         3.217011         0.667566
