19
Iteration:  1524
 O         0.605107         0.673942         0.188188
 C        -0.747778         0.890959         0.610233
 C        -1.210582         1.076071         2.109122
 C        -2.551119         1.269003         1.287487
 O        -3.870513         1.654790         1.658616
 C        -2.101145         0.185278         0.224818
 C        -2.705891         0.714096        -1.027755
 C        -2.269795         2.243627        -0.952448
 C        -1.620164         2.182647         0.466630
 H         0.815425         1.648966         0.090432
 H        -1.041147         0.074171         2.659310
 H        -0.903334         2.059674         2.500921
 H        -4.371207         0.800085         2.074487
 H        -2.273688        -0.813567         0.422446
 H        -2.570144         0.232035        -2.013324
 H        -3.808300         0.574621        -1.072488
 H        -1.686705         2.763951        -1.721339
 H        -3.225400         2.826820        -0.741511
 H        -1.202288         3.001922         0.940152
