19
Iteration:    59
 O         0.453886         0.874134         0.116117
 C        -0.869295         0.945198         0.595063
 C        -1.381565         0.875764         2.120626
 C        -2.521157         1.339520         1.326554
 O        -3.780401         1.371404         1.830649
 C        -2.238047         0.241368         0.198080
 C        -2.603166         0.769033        -1.110741
 C        -2.128588         2.268158        -0.946712
 C        -1.509963         2.278041         0.412344
 H         0.917586        -0.013465         0.525543
 H        -1.592621        -0.098397         2.522000
 H        -0.918665         1.567362         2.870342
 H        -4.084138         2.348274         1.822537
 H        -2.233954        -0.821966         0.532533
 H        -2.017046         0.269436        -1.889333
 H        -3.620109         0.616665        -1.434405
 H        -1.342160         2.489402        -1.815619
 H        -2.888007         3.092840        -1.009388
 H        -0.977782         3.187296         0.892311
