19
Iteration:   756
 O         0.479869         0.730946         0.300993
 C        -0.850489         0.926844         0.635186
 C        -1.214964         0.895091         2.112533
 C        -2.463148         1.312303         1.278687
 O        -3.728458         1.526271         1.759270
 C        -2.214715         0.229518         0.201638
 C        -2.602330         0.764068        -1.162747
 C        -2.295428         2.314844        -1.017392
 C        -1.657088         2.276055         0.447716
 H         0.466135         0.512815        -0.580736
 H        -1.157078        -0.081733         2.651828
 H        -0.918986         1.650813         2.869380
 H        -3.663716         1.391532         2.781767
 H        -2.413328        -0.846361         0.440397
 H        -2.034905         0.485645        -2.107281
 H        -3.629086         0.453942        -1.519780
 H        -1.735930         2.510130        -1.953258
 H        -3.036612         3.044382        -1.100317
 H        -1.317638         3.311362         0.919692
