19
Iteration:  2254charge 0 multiplicity 1
 O         0.334599         0.837918         0.066248
 C        -0.871434         0.937718         0.673109
 C        -1.207832         0.991966         2.201459
 C        -2.525000         1.261045         1.398718
 O        -3.859410         1.598285         1.872230
 C        -2.140019         0.202461         0.235669
 C        -2.497688         0.696540        -1.174877
 C        -2.082757         2.237591        -1.083230
 C        -1.637779         2.287850         0.387399
 H         0.699574        -0.135313         0.211322
 H        -1.124334         0.086229         2.762927
 H        -0.819939         1.870073         2.764251
 H        -4.490178         0.761029         1.856877
 H        -2.326480        -0.858554         0.461575
 H        -2.006018         0.033808        -1.911907
 H        -3.673335         0.595213        -1.269834
 H        -1.273775         2.434755        -1.832757
 H        -2.946787         2.891955        -1.193323
 H        -1.094974         3.146171         0.786172
