19
Iteration:  2315
 O         0.486212         0.758717         0.239722
 C        -0.803303         0.932817         0.616163
 C        -1.265364         1.038391         2.089081
 C        -2.477523         1.259188         1.295811
 O        -3.755516         1.690476         1.715277
 C        -2.099869         0.124821         0.205445
 C        -2.556958         0.723879        -1.131641
 C        -2.374104         2.247053        -0.884507
 C        -1.702999         2.215092         0.388618
 H         0.640531        -0.155904         0.077068
 H        -1.331109         0.057556         2.712196
 H        -0.814438         1.770702         2.765723
 H        -4.051121         1.108884         2.508187
 H        -2.270666        -0.964970         0.179777
 H        -1.683580         0.586048        -1.802192
 H        -3.416666         0.351668        -1.561889
 H        -1.766417         2.648709        -1.719035
 H        -3.278523         2.900116        -0.811866
 H        -1.355349         3.197306         0.731437
