19
Iteration:  4691charge 0 multiplicity 1
 O         0.598676         0.710369         0.433285
 C        -0.756711         1.107010         0.684388
 C        -1.253164         1.188717         2.094943
 C        -2.535793         1.377631         1.250473
 O        -3.820076         1.511372         1.786315
 C        -2.124515         0.209620         0.248009
 C        -2.658727         0.520959        -1.092059
 C        -2.323567         2.032522        -1.153447
 C        -1.723110         2.309180         0.266030
 H         0.761452         0.675402        -0.611072
 H        -1.064112         0.272512         2.730367
 H        -1.018522         2.193684         2.519498
 H        -3.733071         1.900396         2.649960
 H        -2.035549        -0.807684         0.592986
 H        -2.200182         0.023078        -1.917922
 H        -3.651996         0.194494        -1.214597
 H        -1.588004         2.330638        -1.887128
 H        -3.206378         2.754731        -1.274841
 H        -1.213787         3.137683         0.636086
