19
Iteration:   183
 O         0.420431         0.698331         0.051499
 C        -0.801770         0.992470         0.697451
 C        -1.308410         0.928679         2.163322
 C        -2.592335         1.208266         1.310345
 O        -3.830407         1.545784         1.874655
 C        -1.994514         0.233108         0.180120
 C        -2.549457         0.793652        -1.210984
 C        -2.188514         2.250352        -1.049227
 C        -1.765851         2.250569         0.452862
 H         1.275418         0.801846         0.684874
 H        -1.228836        -0.058263         2.729986
 H        -1.098646         1.794429         2.774033
 H        -3.719437         2.319398         2.621934
 H        -1.965710        -0.864040         0.418806
 H        -2.279934         0.360008        -2.193694
 H        -3.637036         0.510399        -1.167360
 H        -1.090429         2.307751        -1.538702
 H        -2.887736         3.088962        -1.416836
 H        -1.406627         3.114362         1.042264
