19
Iteration:  3725
 O         0.469448         0.654140         0.239664
 C        -0.846065         0.979031         0.587967
 C        -1.276626         1.003891         2.162647
 C        -2.450060         1.268401         1.291847
 O        -3.743032         1.533240         1.888659
 C        -2.191577         0.233833         0.146717
 C        -2.534653         0.811439        -1.186899
 C        -2.238226         2.286355        -1.023738
 C        -1.726170         2.249627         0.437662
 H         0.803389         0.227908         1.026671
 H        -1.268198        -0.030534         2.598408
 H        -0.942608         1.927068         2.626819
 H        -4.364223         1.115530         1.369757
 H        -2.190121        -0.865610         0.265106
 H        -1.933018         0.300553        -1.977029
 H        -3.630021         0.629711        -1.449608
 H        -1.466408         2.681789        -1.687172
 H        -3.137101         2.945127        -1.324603
 H        -1.330594         3.252838         0.819374
