19
Iteration:  3703charge 0 multiplicity 1
 O         0.465949         0.618632         0.119058
 C        -0.840096         0.996033         0.657522
 C        -1.166030         0.937355         2.168890
 C        -2.563265         1.254817         1.300689
 O        -3.902441         1.600065         1.837392
 C        -2.081041         0.220944         0.228840
 C        -2.509460         0.777197        -1.203156
 C        -2.197198         2.307931        -0.964043
 C        -1.728534         2.310799         0.424309
 H         1.075876         0.227250         0.823626
 H        -0.957334        -0.125847         2.534698
 H        -0.711360         1.850661         2.533045
 H        -4.630926         1.142853         1.224096
 H        -2.082605        -0.838070         0.556998
 H        -1.967229         0.300956        -2.036484
 H        -3.548845         0.348792        -1.229000
 H        -1.526732         2.702057        -1.721719
 H        -3.055380         3.087113        -1.032890
 H        -1.586580         3.319233         0.997872
