19
Iteration:  3218charge 0 multiplicity 1
 O         0.474819         0.665368         0.289048
 C        -0.790130         1.030832         0.689796
 C        -1.214091         0.983768         2.069589
 C        -2.582674         1.287752         1.248699
 O        -3.782639         1.467064         1.885432
 C        -2.121659         0.279908         0.201478
 C        -2.583744         0.746810        -1.188990
 C        -2.258552         2.288176        -0.998292
 C        -1.659265         2.281930         0.402215
 H         0.507809         0.143585        -0.513794
 H        -1.464087        -0.054270         2.430094
 H        -0.840574         1.634564         2.865747
 H        -4.332032         1.908781         1.200888
 H        -2.169334        -0.787076         0.498112
 H        -1.926785         0.153338        -1.847003
 H        -3.632089         0.492680        -1.355304
 H        -1.388470         2.661228        -1.596815
 H        -3.019521         3.027810        -1.248755
 H        -1.285056         3.082369         1.003087
