19
Iteration:  4532charge 0 multiplicity 1
 O         0.592290         0.609409         0.440691
 C        -0.826826         1.034537         0.683952
 C        -1.177446         1.253558         2.085600
 C        -2.510001         1.353096         1.268044
 O        -3.826116         1.479845         1.750855
 C        -2.098650         0.238259         0.299910
 C        -2.568473         0.565142        -1.029862
 C        -2.364508         2.122241        -1.148147
 C        -1.785535         2.332740         0.188073
 H         0.788750         0.772002        -0.576713
 H        -1.112625         0.323786         2.675239
 H        -0.776266         2.134878         2.535915
 H        -3.751541         2.015014         2.531636
 H        -2.212745        -0.837790         0.443071
 H        -2.057392        -0.092635        -1.739092
 H        -3.631063         0.358157        -1.281594
 H        -1.663418         2.415406        -1.973812
 H        -3.334256         2.533602        -1.189824
 H        -1.528394         3.321242         0.657175
