19
Iteration:  3539
 O         0.388916         0.720977         0.023465
 C        -0.771062         1.012116         0.677278
 C        -1.377010         0.815259         2.217690
 C        -2.489898         1.221082         1.289058
 O        -3.826463         1.680871         1.806095
 C        -2.046732         0.212851         0.203645
 C        -2.493143         0.722587        -1.147065
 C        -2.195893         2.198986        -0.943127
 C        -1.659358         2.253650         0.487039
 H         0.943700         1.463068         0.182727
 H        -1.323890        -0.169275         2.708653
 H        -1.142371         1.700728         2.858108
 H        -4.321775         2.038425         1.107723
 H        -1.977085        -0.829275         0.452319
 H        -2.019373         0.200494        -1.973946
 H        -3.564328         0.451473        -1.012138
 H        -1.530761         2.580273        -1.709849
 H        -3.126753         2.850765        -1.031818
 H        -1.537672         3.212701         1.039441
