19
Iteration:  1432charge 0 multiplicity 1
 O         0.258571         0.732955         0.052709
 C        -0.874797         0.951722         0.684155
 C        -1.189894         1.035231         2.115065
 C        -2.563500         1.313706         1.312030
 O        -3.773078         1.618688         1.822666
 C        -2.137594         0.163802         0.250451
 C        -2.440344         0.701989        -1.171405
 C        -2.170249         2.188685        -0.953815
 C        -1.700276         2.280978         0.401623
 H         0.995452         0.786835         0.635685
 H        -1.072792         0.089363         2.591955
 H        -0.713880         1.996810         2.654123
 H        -4.023533         0.852462         2.487815
 H        -2.131482        -0.874037         0.578585
 H        -1.736044         0.247180        -1.898575
 H        -3.363874         0.324665        -1.569597
 H        -1.456468         2.523497        -1.690776
 H        -3.074087         2.732728        -1.079822
 H        -1.282926         3.238566         0.929250
