19
Iteration:  3974charge 0 multiplicity 1
 O         0.427360         0.790385         0.122860
 C        -0.868066         0.892198         0.659062
 C        -1.248787         1.002906         2.178270
 C        -2.503460         1.346599         1.325901
 O        -3.849411         1.494488         1.823007
 C        -2.116753         0.228982         0.255229
 C        -2.497760         0.729014        -1.159606
 C        -2.138058         2.219266        -1.002171
 C        -1.727535         2.274865         0.445397
 H         0.518202        -0.033594        -0.331070
 H        -1.281166         0.056578         2.693384
 H        -0.954787         1.754044         2.908361
 H        -4.233935         2.138787         1.273157
 H        -2.285324        -0.857968         0.535180
 H        -1.927169         0.316906        -1.980064
 H        -3.605131         0.556198        -1.201445
 H        -1.209464         2.257203        -1.550484
 H        -2.939481         2.894620        -1.318991
 H        -1.125798         3.207390         0.729326
