19
Iteration:  4786
 O         0.456292         0.842131         0.195855
 C        -0.838374         1.044425         0.698603
 C        -1.240271         1.140584         2.152202
 C        -2.550163         1.427285         1.306554
 O        -3.768395         1.592668         1.788417
 C        -2.154663         0.230936         0.366893
 C        -2.519067         0.501146        -1.100854
 C        -2.187475         2.008172        -1.111403
 C        -1.720464         2.295099         0.281727
 H         0.452590        -0.056206         0.108447
 H        -1.322487         0.289242         2.770212
 H        -0.903390         2.029852         2.736973
 H        -4.081726         0.684634         1.874756
 H        -2.225535        -0.695153         0.959376
 H        -1.949208        -0.119258        -1.799509
 H        -3.566962         0.251158        -1.489951
 H        -1.503670         2.254630        -1.912145
 H        -3.127052         2.523522        -1.344075
 H        -1.250402         3.298211         0.534862
