19
Iteration:   217charge 0 multiplicity 1
 O         0.424331         0.856227         0.116937
 C        -0.935483         0.965945         0.615009
 C        -1.275942         0.911246         2.015904
 C        -2.514476         1.332080         1.321969
 O        -3.790768         1.381492         1.803741
 C        -2.256619         0.263364         0.360074
 C        -2.525853         0.750889        -1.103203
 C        -2.107580         2.249203        -0.999023
 C        -1.596881         2.243813         0.391799
 H         0.813068         0.135452         0.685133
 H        -1.201362        -0.126210         2.419217
 H        -0.865603         1.670248         2.692922
 H        -4.051497         2.386526         2.069590
 H        -2.400579        -0.740694         0.684846
 H        -1.991552         0.204237        -1.881843
 H        -3.624154         0.778054        -1.222140
 H        -1.225645         2.559374        -1.699782
 H        -2.979986         2.913601        -1.307946
 H        -1.059988         2.987446         0.903465
