19
Iteration:   144charge 0 multiplicity 1
 O         0.526338         0.674790         0.166997
 C        -0.818836         0.945385         0.670335
 C        -1.237987         0.846404         2.184272
 C        -2.466696         1.380100         1.423093
 O        -3.862201         1.445918         1.701849
 C        -2.203082         0.306986         0.269588
 C        -2.559746         0.762359        -1.228036
 C        -2.355924         2.312797        -1.044896
 C        -1.577239         2.216041         0.422121
 H         0.843047         1.487433        -0.036528
 H        -1.220629        -0.099007         2.669281
 H        -0.849760         1.670131         2.843235
 H        -4.050155         1.833791         2.587389
 H        -2.561999        -0.621395         0.628547
 H        -1.757684         0.503644        -1.931321
 H        -3.564732         0.478031        -1.456398
 H        -1.710695         2.551904        -1.793274
 H        -3.140833         3.020002        -0.996126
 H        -0.979601         3.162971         0.531911
