19
Iteration:  3228charge 0 multiplicity 1
 O         0.502096         0.651153         0.252963
 C        -0.802712         1.051900         0.624738
 C        -1.284921         0.897489         2.155215
 C        -2.495262         1.284465         1.329450
 O        -3.810215         1.561818         1.850033
 C        -2.052908         0.251311         0.183515
 C        -2.604115         0.681332        -1.189886
 C        -2.205576         2.333956        -0.976781
 C        -1.758572         2.320633         0.457423
 H         0.495340         0.127226        -0.511736
 H        -1.067495        -0.171348         2.473392
 H        -0.886542         1.634759         2.858182
 H        -4.577263         1.712139         1.199284
 H        -1.901595        -0.829292         0.243774
 H        -2.113215         0.251131        -2.103461
 H        -3.670362         0.474806        -1.271889
 H        -1.354204         2.454019        -1.675966
 H        -3.004629         2.938041        -1.308659
 H        -1.537516         3.323612         0.771218
