19
Iteration:   287charge 0 multiplicity 1
 O         0.449910         0.758771         0.243314
 C        -0.832697         0.955847         0.648926
 C        -1.206688         0.910407         2.152884
 C        -2.445214         1.382485         1.348994
 O        -3.813802         1.525237         1.666253
 C        -2.105463         0.222384         0.229449
 C        -2.568741         0.735681        -1.191038
 C        -2.342407         2.240421        -0.967929
 C        -1.647862         2.265941         0.429721
 H         0.615479         0.105178        -0.407256
 H        -1.275660        -0.118759         2.532033
 H        -0.628660         1.630812         2.823943
 H        -3.990842         1.820958         2.551508
 H        -2.373834        -0.816720         0.563520
 H        -1.919017         0.224441        -1.944354
 H        -3.633410         0.522360        -1.323345
 H        -1.800735         2.798655        -1.691711
 H        -3.309385         2.733357        -0.907181
 H        -1.071421         3.173214         0.745006
