19
Iteration:  4984charge 0 multiplicity 1
 O         0.581939         0.886688         0.197730
 C        -0.794071         0.956101         0.631948
 C        -1.267758         1.176120         2.175223
 C        -2.556664         1.348380         1.310393
 O        -3.850955         1.640462         1.739410
 C        -2.109818         0.151340         0.407092
 C        -2.585938         0.585274        -1.031535
 C        -2.298902         2.066884        -1.131530
 C        -1.664455         2.161079         0.328669
 H         0.820968         0.000622        -0.097876
 H        -1.277334         0.393019         2.949121
 H        -0.820886         2.024144         2.631223
 H        -4.484019         1.141328         1.173024
 H        -1.946499        -0.864305         0.898187
 H        -1.893257         0.040655        -1.618376
 H        -3.717904         0.441982        -1.215288
 H        -1.568554         2.337101        -1.845712
 H        -3.163486         2.642803        -1.334201
 H        -1.310876         3.250035         0.496649
