19
Iteration:   698
 O         0.405575         0.687620         0.109880
 C        -0.860010         0.943308         0.631481
 C        -1.225293         0.898402         2.222936
 C        -2.424383         1.379574         1.404606
 O        -3.740959         1.387012         1.692782
 C        -2.188514         0.314791         0.229625
 C        -2.685472         0.782334        -1.134323
 C        -2.194787         2.238979        -1.003990
 C        -1.631844         2.238311         0.456099
 H         1.079946         1.487108         0.252494
 H        -1.453476        -0.105834         2.575033
 H        -0.736949         1.700482         2.915279
 H        -4.095446         2.259790         1.638670
 H        -2.313427        -0.656941         0.583263
 H        -2.222843         0.278178        -1.972456
 H        -3.741489         0.741082        -1.214502
 H        -1.441988         2.457905        -1.712383
 H        -2.958642         2.987387        -1.059267
 H        -1.226052         3.264368         0.780896
