19
Iteration:  3930
 O         0.465568         0.818761         0.048979
 C        -0.793042         0.962573         0.637621
 C        -1.273920         0.849379         2.165158
 C        -2.512861         1.355604         1.379951
 O        -3.867342         1.678715         1.720944
 C        -2.120540         0.192781         0.251095
 C        -2.550779         0.647814        -1.093531
 C        -2.221024         2.242141        -0.958574
 C        -1.648138         2.249358         0.482449
 H         1.073340         0.083410         0.308436
 H        -1.282784        -0.111922         2.626836
 H        -0.787871         1.544530         2.876437
 H        -4.415639         1.183897         1.148497
 H        -2.467543        -0.859801         0.444872
 H        -1.881793         0.157932        -1.757216
 H        -3.631445         0.569977        -1.317357
 H        -1.342047         2.590005        -1.498333
 H        -3.107419         2.854494        -1.181240
 H        -1.285765         3.216797         0.967783
