19
Iteration:  1685charge 0 multiplicity 1
 O         0.566424         0.851179         0.200982
 C        -0.829558         0.894258         0.534240
 C        -1.199387         1.057722         2.226574
 C        -2.493549         1.213972         1.355450
 O        -3.810208         1.685577         1.635131
 C        -2.096007         0.139773         0.223527
 C        -2.733469         0.737714        -1.056130
 C        -2.281452         2.189936        -0.942203
 C        -1.652929         2.182107         0.381438
 H         0.824223        -0.067926         0.613431
 H        -1.086144         0.235897         2.827078
 H        -0.768788         2.032144         2.631541
 H        -4.318304         0.827101         2.033007
 H        -2.113934        -1.024764         0.242592
 H        -2.387540         0.349347        -2.042981
 H        -3.818736         0.670130        -1.149603
 H        -1.653996         2.514113        -1.772229
 H        -3.115838         2.872402        -0.920718
 H        -1.219123         3.200316         0.789358
