19
Iteration:  2999
 O         0.498302         0.684912         0.142665
 C        -0.793947         1.104232         0.743664
 C        -1.287824         0.849230         2.179938
 C        -2.510652         1.253955         1.303189
 O        -3.760369         1.601926         1.811113
 C        -2.096892         0.215007         0.255930
 C        -2.534829         0.612055        -1.138078
 C        -2.238768         2.211597        -0.997298
 C        -1.762575         2.335455         0.420567
 H         0.519583         0.634176        -0.806212
 H        -1.377466        -0.132084         2.705406
 H        -1.092354         1.681272         2.877457
 H        -4.176862         2.369699         1.232562
 H        -2.000407        -0.855908         0.414132
 H        -1.938426         0.165772        -1.995142
 H        -3.566596         0.642657        -1.443880
 H        -1.532831         2.837763        -1.650367
 H        -3.257905         2.826034        -1.086742
 H        -1.669964         3.427757         0.600130
