19
Iteration:  2353
 O         0.483277         0.874448         0.194543
 C        -0.823394         0.934522         0.665625
 C        -1.277494         0.811185         2.166953
 C        -2.525127         1.350964         1.376051
 O        -3.793607         1.729664         1.751963
 C        -2.054990         0.156621         0.143716
 C        -2.628548         0.711001        -1.103543
 C        -2.304563         2.162556        -0.993129
 C        -1.627688         2.268436         0.328428
 H         1.034418         0.008615         0.469871
 H        -1.317498        -0.200762         2.438601
 H        -0.751765         1.466082         2.845915
 H        -4.331276         1.007715         2.295237
 H        -2.182898        -0.859307         0.543791
 H        -1.992095         0.363745        -1.910482
 H        -3.686807         0.326053        -1.436002
 H        -1.559446         2.559556        -1.698709
 H        -3.144372         2.863388        -1.036002
 H        -1.200942         3.245178         0.640861
