19
Iteration:  1513charge 0 multiplicity 1
 O         0.607685         0.693853         0.187906
 C        -0.754919         0.908244         0.618090
 C        -1.226144         0.990164         2.115289
 C        -2.504046         1.276060         1.295621
 O        -3.870917         1.665761         1.695028
 C        -2.137625         0.164824         0.269886
 C        -2.708641         0.716515        -1.079124
 C        -2.338516         2.285652        -0.938504
 C        -1.628256         2.221758         0.379495
 H         1.126044         1.441146         0.035878
 H        -1.160892         0.099193         2.833906
 H        -0.871897         1.826630         2.765653
 H        -4.309772         0.792352         2.087011
 H        -2.132947        -0.852856         0.480921
 H        -2.043079         0.317376        -1.856854
 H        -3.763143         0.424328        -1.078888
 H        -1.606041         2.409245        -1.752557
 H        -3.106926         3.088473        -1.081898
 H        -1.340243         3.114293         0.815602
