19
Iteration:  4955charge 0 multiplicity 1
 O         0.485998         0.807691         0.344035
 C        -0.823584         1.073293         0.651189
 C        -1.251446         1.144658         2.186248
 C        -2.539219         1.357256         1.267233
 O        -3.716623         1.627938         1.815900
 C        -2.102656         0.230402         0.273596
 C        -2.586411         0.518586        -1.111110
 C        -2.301575         2.036348        -1.181065
 C        -1.706738         2.289002         0.295436
 H         0.432873         0.022755        -0.093466
 H        -1.236695         0.194118         2.829302
 H        -0.818389         1.954460         2.822096
 H        -4.249646         0.833898         1.801391
 H        -1.819495        -0.707419         0.733173
 H        -2.042812        -0.231442        -1.799923
 H        -3.632700         0.242843        -1.407131
 H        -1.446535         2.244829        -1.878070
 H        -3.330077         2.520989        -1.401053
 H        -1.422358         3.349825         0.572820
