19
Iteration:  1018charge 0 multiplicity 1
 O         0.485183         0.769967         0.142779
 C        -0.833565         0.987787         0.640388
 C        -1.246533         0.844015         2.126652
 C        -2.502308         1.275395         1.315028
 O        -3.771432         1.602165         1.777158
 C        -2.138638         0.298911         0.221087
 C        -2.658953         0.765292        -1.111034
 C        -2.209925         2.209776        -0.992606
 C        -1.656868         2.281298         0.447601
 H         0.755262        -0.045324         0.708304
 H        -1.229428        -0.210131         2.408982
 H        -0.759280         1.638357         2.677345
 H        -4.254498         0.851274         1.582747
 H        -2.214396        -0.723338         0.511671
 H        -2.194011         0.277779        -1.974557
 H        -3.699060         0.655735        -1.140285
 H        -1.469732         2.539274        -1.781468
 H        -3.029633         2.972389        -1.060652
 H        -1.360734         3.322691         0.891818
