19
Iteration:  2750
 O         0.496624         0.828434         0.215315
 C        -0.772985         1.055926         0.649986
 C        -1.246763         0.858149         2.170374
 C        -2.462837         1.265588         1.384203
 O        -3.788187         1.726784         1.714839
 C        -2.145351         0.151410         0.212106
 C        -2.676290         0.643472        -1.090627
 C        -2.196847         2.163118        -1.065672
 C        -1.720349         2.246209         0.439075
 H         0.790286         1.184170        -0.579971
 H        -1.210210        -0.159961         2.594505
 H        -0.766017         1.523263         2.905512
 H        -4.402019         1.165791         2.149386
 H        -2.095750        -0.903457         0.482487
 H        -2.373831         0.195089        -1.988113
 H        -3.788159         0.487119        -1.326596
 H        -1.282709         2.137538        -1.698162
 H        -2.979057         2.806130        -1.489963
 H        -1.565966         3.256681         0.989108
