19
Iteration:  3734
 O         0.506636         0.693388         0.234228
 C        -0.886137         0.962817         0.635174
 C        -1.354798         0.940713         2.159937
 C        -2.527129         1.290126         1.291625
 O        -3.686414         1.493105         1.907898
 C        -2.203985         0.262441         0.160357
 C        -2.559752         0.779483        -1.237139
 C        -2.211594         2.283420        -1.011079
 C        -1.623976         2.337524         0.312652
 H         0.939090         0.213856         0.952884
 H        -1.282769         0.073690         2.821634
 H        -0.945538         1.802213         2.753086
 H        -4.324413         1.104388         1.385029
 H        -2.409258        -0.770727         0.486938
 H        -2.040371         0.220547        -1.994615
 H        -3.620851         0.460424        -1.365114
 H        -1.518973         2.650390        -1.784521
 H        -3.117447         2.926063        -0.905124
 H        -1.388173         3.232280         0.945752
