19
Iteration:  1284charge 0 multiplicity 1
 O         0.461915         0.795594         0.124601
 C        -0.850629         0.862927         0.600564
 C        -1.217742         1.005799         2.096974
 C        -2.562149         1.315251         1.296993
 O        -3.833649         1.663438         1.952146
 C        -2.193521         0.187320         0.204545
 C        -2.397810         0.707620        -1.176376
 C        -2.217074         2.222518        -1.016937
 C        -1.771882         2.221798         0.469485
 H         0.530409         0.162547        -0.595223
 H        -1.224820         0.208375         2.903891
 H        -0.782692         1.807822         2.569247
 H        -4.014160         0.858072         2.432078
 H        -2.449267        -0.935238         0.413589
 H        -1.574816         0.320222        -1.752352
 H        -3.348850         0.566489        -1.671999
 H        -1.280707         2.508077        -1.555326
 H        -3.020560         2.972937        -1.260091
 H        -1.361904         3.089229         0.898994
