19
Iteration:  2029charge 0 multiplicity 1
 O         0.555228         0.755773         0.127448
 C        -0.771779         0.941801         0.680455
 C        -1.246268         0.962007         2.213511
 C        -2.477968         1.292227         1.309498
 O        -3.812404         1.562951         1.639883
 C        -2.087712         0.252780         0.272536
 C        -2.712131         0.709380        -1.033877
 C        -2.311931         2.246209        -1.026651
 C        -1.641154         2.327130         0.414699
 H         0.980577        -0.072269         0.422912
 H        -1.454187        -0.012462         2.682403
 H        -0.804426         1.766834         2.824816
 H        -4.206823         0.781217         1.920185
 H        -2.306810        -0.750032         0.607374
 H        -2.188424         0.224098        -1.922524
 H        -3.801441         0.550407        -1.237631
 H        -1.633633         2.409336        -1.843481
 H        -3.107541         3.063289        -1.214368
 H        -1.368640         3.343120         0.825300
