19
Iteration:  1006
 O         0.315718         0.767970         0.190795
 C        -0.839198         1.006203         0.705307
 C        -1.239596         0.820723         2.153670
 C        -2.450326         1.345384         1.361232
 O        -3.703902         1.541939         1.802435
 C        -2.155251         0.276701         0.219760
 C        -2.581746         0.784097        -1.145928
 C        -2.240377         2.266431        -1.064887
 C        -1.623550         2.286162         0.347826
 H         0.787470         0.030900         0.358944
 H        -1.313919        -0.132862         2.597824
 H        -0.755427         1.388628         2.976589
 H        -4.259448         0.696826         1.789413
 H        -2.215886        -0.752355         0.361563
 H        -2.011663         0.198772        -1.908018
 H        -3.584818         0.649289        -1.371579
 H        -1.476333         2.538231        -1.884375
 H        -3.216960         2.874794        -1.140140
 H        -1.181643         3.305815         0.716040
