19
Iteration:  4506charge 0 multiplicity 1
 O         0.509003         0.740673         0.270185
 C        -0.813231         1.047713         0.704891
 C        -1.231558         1.220036         2.196523
 C        -2.503233         1.313463         1.315464
 O        -3.854657         1.593264         1.681080
 C        -1.999828         0.179835         0.338181
 C        -2.606599         0.527776        -1.108740
 C        -2.338893         2.071428        -1.055048
 C        -1.674161         2.211565         0.263174
 H         0.656271         0.844574        -0.719806
 H        -1.384738         0.360956         2.860309
 H        -1.000483         2.234390         2.540993
 H        -3.812439         2.080476         2.494973
 H        -2.252441        -0.831495         0.657694
 H        -2.112669        -0.010617        -1.985337
 H        -3.617658         0.222613        -1.278112
 H        -1.509580         2.189348        -1.758303
 H        -3.179464         2.765823        -1.206120
 H        -1.244159         3.109230         0.633019
