19
Iteration:   403charge 0 multiplicity 1
 O         0.416789         0.660363         0.094478
 C        -0.785798         1.024810         0.698029
 C        -1.261338         0.919045         2.269168
 C        -2.455187         1.242321         1.371173
 O        -3.777926         1.490243         1.628529
 C        -2.113803         0.237094         0.300644
 C        -2.643653         0.767889        -1.120505
 C        -2.275941         2.289688        -0.999595
 C        -1.651844         2.196066         0.382187
 H         0.789536         1.564821         0.020976
 H        -1.116026        -0.049701         2.676097
 H        -0.895630         1.754647         2.859532
 H        -3.889098         2.339784         1.995833
 H        -2.304631        -0.772990         0.514571
 H        -2.089541         0.343577        -1.934098
 H        -3.718714         0.596668        -1.194813
 H        -1.392030         2.537419        -1.669131
 H        -3.027297         3.095517        -1.128808
 H        -1.329104         3.213265         0.783192
