19
Iteration:  3805charge 0 multiplicity 1
 O         0.392407         0.845286         0.024291
 C        -0.808858         0.977542         0.680744
 C        -1.359439         0.931797         2.228628
 C        -2.538510         1.177277         1.380190
 O        -3.854040         1.585394         1.759182
 C        -2.070897         0.141430         0.214567
 C        -2.545970         0.774247        -1.110824
 C        -2.100582         2.243770        -0.991892
 C        -1.652903         2.221016         0.501476
 H         0.758399         0.030643        -0.289072
 H        -1.271695        -0.021126         2.810783
 H        -0.831586         1.761626         2.729108
 H        -3.999595         2.414254         1.406696
 H        -2.108287        -0.879920         0.561064
 H        -2.142887         0.194109        -1.986079
 H        -3.589319         0.587835        -1.257796
 H        -1.283291         2.519281        -1.684823
 H        -2.977487         2.916895        -1.140403
 H        -1.247172         3.154121         0.792777
