19
Iteration:  3928charge 0 multiplicity 1
 O         0.466731         0.815735         0.068901
 C        -0.812196         0.950581         0.634551
 C        -1.263680         0.838465         2.151352
 C        -2.501097         1.369971         1.381123
 O        -3.864661         1.677298         1.722731
 C        -2.126201         0.199310         0.256869
 C        -2.551235         0.641329        -1.103636
 C        -2.219788         2.251082        -0.974294
 C        -1.659997         2.266722         0.495003
 H         0.994928         0.152531         0.376065
 H        -1.279401        -0.104387         2.651671
 H        -0.646609         1.519340         2.834040
 H        -4.384910         1.121326         1.168541
 H        -2.454305        -0.831164         0.408544
 H        -1.907689         0.126966        -1.848027
 H        -3.596302         0.527812        -1.319573
 H        -1.326318         2.588736        -1.549349
 H        -3.130838         2.809292        -1.116440
 H        -1.293016         3.177189         0.945130
