19
Iteration:  1945
 O         0.377069         0.887620         0.090929
 C        -0.880559         0.920157         0.711934
 C        -1.243129         0.887041         2.184199
 C        -2.576042         1.332724         1.352373
 O        -3.794595         1.715831         1.922766
 C        -2.138725         0.249031         0.205633
 C        -2.415894         0.663671        -1.242752
 C        -2.202687         2.162912        -1.088020
 C        -1.708760         2.193077         0.425167
 H         0.697327         0.024916         0.333170
 H        -1.126366        -0.085815         2.730575
 H        -0.774133         1.667949         2.857214
 H        -4.040984         0.979285         2.578983
 H        -2.296436        -0.826051         0.423486
 H        -1.755436         0.255460        -2.045236
 H        -3.412516         0.278406        -1.639744
 H        -1.371254         2.417964        -1.870621
 H        -3.056235         2.776242        -1.429005
 H        -1.200838         3.143576         0.571571
