19
Iteration:  3200
 O         0.488448         0.697120         0.279466
 C        -0.860105         0.886584         0.644601
 C        -1.326871         0.974371         2.184760
 C        -2.484274         1.376466         1.346223
 O        -3.765983         1.388497         1.871846
 C        -2.222027         0.230912         0.215503
 C        -2.512399         0.776735        -1.197453
 C        -2.191916         2.311220        -1.020457
 C        -1.620123         2.304960         0.328383
 H         0.743214         0.404268        -0.622533
 H        -1.164708         0.073365         2.729417
 H        -0.911498         1.925181         2.551838
 H        -4.400028         2.077020         1.619109
 H        -2.483799        -0.831379         0.393004
 H        -1.835057         0.318771        -1.940102
 H        -3.603798         0.649371        -1.438512
 H        -1.784202         2.732214        -1.938428
 H        -3.285561         2.786615        -1.120585
 H        -1.214857         3.322650         0.652446
