19
Iteration:  4303
 O         0.483588         0.732226         0.257002
 C        -0.799446         1.028918         0.754808
 C        -1.280259         1.102242         2.156542
 C        -2.520375         1.416593         1.270309
 O        -3.811829         1.518927         1.871689
 C        -2.104705         0.257950         0.282593
 C        -2.507429         0.494280        -1.108039
 C        -2.243517         2.104602        -1.178053
 C        -1.724223         2.240561         0.250496
 H         0.510838         1.160570        -0.547701
 H        -1.315289         0.121160         2.739452
 H        -1.007039         1.886766         2.854040
 H        -3.967584         2.452576         2.020623
 H        -2.091605        -0.786965         0.627813
 H        -1.973688         0.001915        -1.911503
 H        -3.606723         0.277569        -1.123081
 H        -1.545189         2.305074        -1.931108
 H        -3.188436         2.708681        -1.210415
 H        -1.400674         3.278194         0.595356
