19
Iteration:  2965
 O         0.549935         0.766816         0.337664
 C        -0.807095         0.971365         0.617487
 C        -1.171510         0.986460         2.111389
 C        -2.550623         1.298814         1.319221
 O        -3.870840         1.475978         1.798640
 C        -2.251559         0.202953         0.244591
 C        -2.644757         0.711106        -1.153259
 C        -2.242466         2.251102        -1.055763
 C        -1.595845         2.221627         0.327775
 H         0.648829         0.794110        -0.655635
 H        -1.096282         0.104151         2.776007
 H        -0.790237         1.929002         2.558138
 H        -3.822281         2.139006         2.479654
 H        -2.306922        -0.832402         0.588864
 H        -1.975450         0.122521        -1.868060
 H        -3.664967         0.509198        -1.467932
 H        -1.458735         2.623225        -1.805949
 H        -3.100424         2.996975        -0.963720
 H        -1.135586         3.172940         0.556409
