19
Iteration:  1093
 O         0.530101         0.710673         0.106856
 C        -0.777091         0.992772         0.609525
 C        -1.247739         0.817085         2.151202
 C        -2.536338         1.274755         1.343610
 O        -3.892475         1.651294         1.823735
 C        -2.126027         0.346749         0.241717
 C        -2.520505         0.757791        -1.146053
 C        -2.243566         2.224192        -1.051753
 C        -1.718797         2.286340         0.452604
 H         0.796902        -0.240790         0.003547
 H        -1.381003        -0.169517         2.534061
 H        -0.818433         1.522235         2.961527
 H        -4.116923         0.912943         2.571774
 H        -2.293342        -0.669556         0.424353
 H        -1.876469         0.255627        -1.928799
 H        -3.604872         0.679535        -1.314597
 H        -1.444506         2.603358        -1.815734
 H        -3.221310         2.859121        -1.080540
 H        -1.201485         3.243709         0.850516
