19
Iteration:  2401
 O         0.446655         0.816865         0.092198
 C        -0.793548         0.952288         0.637378
 C        -1.183122         1.038235         2.184017
 C        -2.563133         1.289424         1.348580
 O        -3.907472         1.532147         1.848781
 C        -2.231756         0.162133         0.254310
 C        -2.616637         0.802379        -1.137623
 C        -2.106480         2.197197        -1.080314
 C        -1.602539         2.235256         0.404151
 H         0.956076         0.122452         0.553201
 H        -1.118543         0.173963         2.957203
 H        -0.897508         2.020907         2.612712
 H        -4.130617         0.710263         2.134561
 H        -2.496828        -0.921108         0.305759
 H        -2.197858         0.287653        -2.103252
 H        -3.711302         0.604535        -1.284249
 H        -1.147673         2.240616        -1.626381
 H        -2.646654         3.079941        -1.502727
 H        -1.075971         3.154449         0.879426
