19
Iteration:  2593
 O         0.434564         0.785691         0.207251
 C        -0.779151         1.016629         0.760418
 C        -1.201372         0.838431         2.192758
 C        -2.497602         1.255210         1.264113
 O        -3.781359         1.661693         1.746660
 C        -2.109275         0.251698         0.258018
 C        -2.632439         0.669099        -1.116235
 C        -2.173526         2.151594        -1.128495
 C        -1.726034         2.328390         0.382826
 H         0.397200         0.925534        -0.813249
 H        -1.265403        -0.169269         2.739236
 H        -0.726843         1.534281         2.950792
 H        -4.340189         0.888361         2.279894
 H        -2.090250        -0.794581         0.611475
 H        -2.483601        -0.063551        -1.935955
 H        -3.749983         0.733158        -0.966048
 H        -1.303556         2.500608        -1.721574
 H        -2.893883         3.020854        -1.271395
 H        -1.555927         3.313194         0.813193
