19
Iteration:  2329
 O         0.586944         0.813484         0.217457
 C        -0.784651         0.918468         0.684055
 C        -1.263058         0.925337         2.138095
 C        -2.539646         1.238607         1.227151
 O        -3.708396         1.714327         1.701404
 C        -2.235098         0.177883         0.208714
 C        -2.524705         0.700644        -1.184508
 C        -2.387016         2.227679        -0.939413
 C        -1.682756         2.249054         0.443040
 H         0.865630        -0.153055         0.141504
 H        -1.096758         0.047349         2.711106
 H        -1.038470         1.898385         2.573827
 H        -3.978792         1.202578         2.407903
 H        -2.417092        -0.781587         0.681869
 H        -2.022421         0.174725        -1.965700
 H        -3.619822         0.535292        -1.385860
 H        -1.882868         2.878747        -1.709361
 H        -3.385036         2.588528        -0.820268
 H        -1.468366         3.095359         1.039894
