19
Iteration:  1556charge 0 multiplicity 1
 O         0.481195         0.633788         0.128897
 C        -0.804878         1.041068         0.664863
 C        -1.268438         0.936315         2.178310
 C        -2.458969         1.302050         1.324705
 O        -3.744048         1.606346         1.643540
 C        -2.065317         0.265425         0.290435
 C        -2.714398         0.666793        -1.031373
 C        -2.315884         2.246669        -1.055020
 C        -1.680579         2.302100         0.433330
 H         0.812508         1.504904         0.118718
 H        -1.180457        -0.112637         2.550820
 H        -0.923571         1.505047         3.073044
 H        -4.089694         0.839462         2.097947
 H        -2.157004        -0.712568         0.550276
 H        -1.958527         0.263933        -1.730744
 H        -3.734107         0.422151        -1.220653
 H        -1.535708         2.346979        -1.790689
 H        -3.086144         2.988741        -1.303275
 H        -1.239295         3.160810         0.935464
