19
Iteration:  2147
 O         0.437363         0.724329         0.154280
 C        -0.783259         0.976725         0.686070
 C        -1.176668         0.990793         2.225339
 C        -2.431352         1.337150         1.255306
 O        -3.862493         1.618269         1.691191
 C        -2.126684         0.218785         0.203190
 C        -2.533253         0.690716        -1.226064
 C        -2.362358         2.245801        -0.931161
 C        -1.642661         2.243009         0.429478
 H         0.703191        -0.279875         0.395876
 H        -0.992116         0.034800         2.751984
 H        -0.950995         1.972394         2.744635
 H        -4.103741         1.241674         2.610640
 H        -2.201261        -0.860051         0.399700
 H        -1.946082         0.131068        -1.901941
 H        -3.477127         0.329115        -1.404497
 H        -1.909367         2.786323        -1.687880
 H        -3.318287         2.777905        -0.858558
 H        -1.325898         3.131524         1.015077
