19
Iteration:  4175charge 0 multiplicity 1
 O         0.500272         0.811397         0.097918
 C        -0.823977         1.018220         0.664671
 C        -1.296537         1.034252         2.189340
 C        -2.559210         1.368014         1.292366
 O        -3.813864         1.574069         1.865717
 C        -2.138540         0.139775         0.315627
 C        -2.511625         0.605350        -1.068774
 C        -2.174628         2.138891        -1.090851
 C        -1.700005         2.271405         0.334589
 H         0.976700         0.288825         0.795716
 H        -1.253156         0.073554         2.695098
 H        -0.781929         1.834718         2.695015
 H        -4.512993         1.653091         1.134527
 H        -2.305334        -0.929294         0.452252
 H        -2.110495         0.023798        -1.856897
 H        -3.562713         0.512397        -1.363593
 H        -1.524139         2.652013        -1.817018
 H        -3.075786         2.749955        -1.220561
 H        -1.375327         3.239537         0.736691
