19
Iteration:  3566
 O         0.428405         0.620210         0.172472
 C        -0.826812         0.961189         0.595131
 C        -1.225625         0.968451         2.196096
 C        -2.447477         1.276264         1.327140
 O        -3.858210         1.493243         1.833831
 C        -2.154156         0.223072         0.225292
 C        -2.517533         0.781344        -1.167384
 C        -2.167239         2.298301        -0.971042
 C        -1.745712         2.273274         0.398367
 H         0.881497         1.430603        -0.043048
 H        -1.318492         0.015150         2.727811
 H        -0.849454         1.808921         2.765272
 H        -4.351410         2.009524         1.224213
 H        -2.180676        -0.862776         0.491735
 H        -1.941664         0.234543        -1.988780
 H        -3.575491         0.497832        -1.318676
 H        -1.333527         2.634251        -1.636541
 H        -3.006903         2.966736        -1.082985
 H        -1.433892         3.227005         0.832540
