19
Iteration:  1878charge 0 multiplicity 1
 O         0.522776         0.785833         0.154874
 C        -0.821915         0.987476         0.661513
 C        -1.250886         0.914742         2.166718
 C        -2.464281         1.370738         1.308949
 O        -3.790434         1.541922         1.641480
 C        -2.111411         0.274667         0.334905
 C        -2.668365         0.728774        -1.010389
 C        -2.256654         2.198726        -1.053371
 C        -1.692089         2.301932         0.357358
 H         0.832587        -0.165611         0.256285
 H        -1.271912        -0.140098         2.580675
 H        -0.745130         1.591347         2.895134
 H        -4.098574         0.718386         2.002405
 H        -2.353452        -0.711619         0.731223
 H        -2.365971         0.108312        -1.880613
 H        -3.801720         0.610731        -1.023344
 H        -1.422306         2.532545        -1.754917
 H        -3.096625         2.900527        -1.202587
 H        -1.203351         3.173244         0.768495
