19
Iteration:  3914
 O         0.418575         0.808870         0.204664
 C        -0.890479         0.898783         0.668815
 C        -1.134423         0.842069         2.116753
 C        -2.512822         1.352564         1.329055
 O        -3.783096         1.637884         1.752790
 C        -2.191626         0.251382         0.238519
 C        -2.548701         0.735432        -1.185454
 C        -2.221086         2.205814        -1.000561
 C        -1.668083         2.290710         0.423028
 H         0.821102         0.145312         0.946088
 H        -1.328720        -0.217029         2.493622
 H        -0.564270         1.599201         2.744660
 H        -4.360316         0.840822         1.565218
 H        -2.132799        -0.715288         0.701564
 H        -1.918879         0.227793        -2.022292
 H        -3.606853         0.543801        -1.332859
 H        -1.714316         2.643528        -1.892198
 H        -3.119553         2.864290        -1.091964
 H        -1.236641         3.183243         0.795315
