19
Iteration:  1924charge 0 multiplicity 1
 O         0.418202         0.884330         0.058553
 C        -0.885475         0.960680         0.664783
 C        -1.300261         0.995341         2.074038
 C        -2.542938         1.227652         1.288861
 O        -3.696405         1.670241         1.876155
 C        -2.253693         0.134408         0.294457
 C        -2.479772         0.647587        -1.142809
 C        -2.061452         2.215509        -1.015168
 C        -1.762074         2.229409         0.440188
 H         0.783580        -0.100375         0.245965
 H        -1.272226         0.060988         2.795846
 H        -1.146778         1.971582         2.743234
 H        -4.060308         0.943588         2.513027
 H        -2.359867        -0.966773         0.489413
 H        -1.878460         0.068014        -1.892506
 H        -3.465785         0.653006        -1.726525
 H        -1.086499         2.563629        -1.667695
 H        -2.888650         2.934310        -1.274756
 H        -1.745009         3.256364         0.873056
