19
Iteration:  5000
 O         0.490395         0.878325         0.101677
 C        -0.792352         1.012192         0.704026
 C        -1.276848         1.173808         2.244036
 C        -2.486676         1.345458         1.335667
 O        -3.822147         1.622287         1.679864
 C        -2.087138         0.175059         0.357164
 C        -2.576411         0.456653        -1.013415
 C        -2.257180         2.065099        -1.049346
 C        -1.687155         2.277866         0.316668
 H         0.722049         0.012990         0.238937
 H        -1.186657         0.228055         2.813911
 H        -0.931382         2.084648         2.841607
 H        -4.323258         1.536156         0.853918
 H        -2.323193        -0.853370         0.588739
 H        -2.071660        -0.073822        -1.889688
 H        -3.584196         0.105730        -1.117983
 H        -1.485212         2.188199        -1.862687
 H        -3.182287         2.725231        -1.181251
 H        -1.356830         3.148423         0.783794
