19
Iteration:  4302
 O         0.489317         0.729218         0.257960
 C        -0.804267         1.039583         0.743815
 C        -1.287292         1.109627         2.157623
 C        -2.526651         1.410465         1.271572
 O        -3.810463         1.517598         1.880238
 C        -2.103913         0.253795         0.282083
 C        -2.514222         0.498961        -1.117058
 C        -2.241790         2.111429        -1.176114
 C        -1.716489         2.234718         0.253769
 H         0.549254         1.149653        -0.536211
 H        -1.296968         0.129964         2.743280
 H        -1.008179         1.904011         2.839697
 H        -3.995641         2.460016         1.988542
 H        -2.092330        -0.780261         0.654218
 H        -1.980077        -0.034352        -1.932165
 H        -3.606976         0.268485        -1.150163
 H        -1.520813         2.288829        -1.897361
 H        -3.191086         2.662080        -1.176579
 H        -1.380371         3.265918         0.583838
