19
Iteration:  3560
 O         0.374243         0.630102         0.153705
 C        -0.814975         0.955943         0.630637
 C        -1.236258         0.980862         2.219939
 C        -2.503947         1.290351         1.318116
 O        -3.807514         1.522526         1.820362
 C        -2.077051         0.180076         0.177680
 C        -2.536173         0.736427        -1.168337
 C        -2.186883         2.282756        -0.984145
 C        -1.762980         2.268570         0.473073
 H         0.902021         1.473576        -0.111946
 H        -1.336423        -0.007245         2.678634
 H        -0.761071         1.721517         2.936773
 H        -4.237369         2.072277         1.030763
 H        -2.057166        -0.871679         0.424476
 H        -1.893018         0.451188        -1.965094
 H        -3.613400         0.575158        -1.261543
 H        -1.365093         2.671067        -1.600379
 H        -2.964767         3.067826        -1.222739
 H        -1.326989         3.221885         0.819267
