19
Iteration:  1606
 O         0.350311         0.741882         0.035255
 C        -0.866481         0.968433         0.644428
 C        -1.284673         1.039875         2.147936
 C        -2.520618         1.197099         1.365367
 O        -3.658632         1.654765         1.884703
 C        -2.266422         0.190720         0.267457
 C        -2.394196         0.664368        -1.190263
 C        -2.191112         2.231379        -1.060860
 C        -1.774556         2.214451         0.416320
 H         1.005084         0.877003         0.847975
 H        -1.191232         0.307558         2.915640
 H        -1.018945         2.063148         2.579191
 H        -4.160132         0.989301         2.431633
 H        -2.416125        -1.002041         0.365513
 H        -1.570084         0.280176        -1.813680
 H        -3.396893         0.496053        -1.684739
 H        -1.298360         2.642857        -1.653410
 H        -3.022054         2.881628        -1.370403
 H        -1.425490         3.214578         0.881883
