19
Iteration:  4759charge 0 multiplicity 1
 O         0.472667         0.844446         0.084465
 C        -0.816330         1.024111         0.709765
 C        -1.226716         1.169105         2.201979
 C        -2.592781         1.287108         1.378180
 O        -3.867449         1.718043         1.687333
 C        -2.035051         0.151268         0.358528
 C        -2.438222         0.527496        -1.042953
 C        -2.187968         2.039924        -1.080692
 C        -1.782890         2.217511         0.342515
 H         0.262839         0.123021        -0.415019
 H        -1.257859         0.228554         2.855221
 H        -1.025945         2.101269         2.725283
 H        -4.201778         1.284239         2.491477
 H        -2.056278        -0.899500         0.691641
 H        -2.016199        -0.157093        -1.828936
 H        -3.493591         0.335081        -1.176335
 H        -1.518772         2.463798        -1.916918
 H        -3.086525         2.565542        -1.524001
 H        -1.326587         3.142953         0.648973
