19
Iteration:  2210charge 0 multiplicity 1
 O         0.426497         0.916454         0.163195
 C        -0.849793         0.965030         0.583788
 C        -1.264899         0.838973         2.159276
 C        -2.516751         1.284509         1.351250
 O        -3.769111         1.653316         1.777513
 C        -2.129244         0.244092         0.257173
 C        -2.649066         0.719654        -1.024072
 C        -2.147468         2.169047        -1.097876
 C        -1.618618         2.245619         0.383928
 H         0.803258         0.018865         0.599746
 H        -1.377463        -0.159416         2.511119
 H        -0.830764         1.571256         2.878133
 H        -4.217606         0.718663         1.827302
 H        -2.109847        -0.852287         0.350128
 H        -2.221682         0.145935        -1.867508
 H        -3.823943         0.644966        -1.071418
 H        -1.277535         2.380185        -1.781544
 H        -3.004198         2.798373        -1.349297
 H        -1.346512         3.205185         0.798521
