19
Iteration:  3320
 O         0.462861         0.554921         0.272907
 C        -0.858069         1.074817         0.660969
 C        -1.336825         1.019110         2.107857
 C        -2.505612         1.249725         1.244613
 O        -3.739068         1.494922         1.972288
 C        -2.122827         0.311305         0.132677
 C        -2.488272         0.775399        -1.164330
 C        -2.261870         2.169394        -1.060980
 C        -1.687287         2.279548         0.417312
 H         0.847072         1.071125        -0.495373
 H        -1.228326         0.037961         2.491111
 H        -1.198286         1.823158         2.872654
 H        -4.449089         1.839867         1.266818
 H        -1.760617        -0.697521         0.160328
 H        -1.965670         0.249410        -1.937919
 H        -3.595952         0.635733        -1.164185
 H        -1.504283         2.656228        -1.642041
 H        -3.091699         2.945938        -1.152476
 H        -1.501577         3.248918         0.944099
