19
Iteration:  4162charge 0 multiplicity 1
 O         0.465453         0.759574         0.131473
 C        -0.814246         1.002096         0.712051
 C        -1.324710         1.006343         2.170964
 C        -2.529446         1.357612         1.290237
 O        -3.789754         1.600278         1.928225
 C        -2.081606         0.309201         0.238622
 C        -2.539278         0.623304        -1.165216
 C        -2.192917         2.102464        -1.137372
 C        -1.722980         2.286352         0.329513
 H         1.151997         0.644181         0.870024
 H        -1.507770        -0.008865         2.600225
 H        -0.938623         1.656109         2.930602
 H        -4.397341         0.952482         1.544701
 H        -2.125096        -0.710543         0.650445
 H        -1.976016         0.053910        -1.832339
 H        -3.627202         0.386640        -1.183961
 H        -1.422465         2.241297        -1.861547
 H        -3.120840         2.647251        -1.302243
 H        -1.383947         3.314512         0.671856
