19
Iteration:  2154charge 0 multiplicity 1
 O         0.408187         0.740254         0.209800
 C        -0.794007         0.936856         0.674227
 C        -1.174662         1.042501         2.138128
 C        -2.474185         1.246067         1.273524
 O        -3.831701         1.624534         1.674269
 C        -2.081854         0.152047         0.234057
 C        -2.545696         0.717855        -1.165011
 C        -2.357653         2.303046        -0.912122
 C        -1.624280         2.237685         0.371707
 H         0.655302        -0.157516         0.403161
 H        -0.994710         0.170833         2.733522
 H        -0.908530         1.842450         2.813492
 H        -4.054867         1.255034         2.529290
 H        -2.268275        -0.921991         0.447775
 H        -1.939616         0.383824        -2.087981
 H        -3.663739         0.296018        -1.306302
 H        -1.775840         2.874476        -1.752772
 H        -3.323788         2.801850        -0.820870
 H        -1.319712         3.165104         0.822480
