19
Iteration:  4163
 O         0.470591         0.762763         0.124811
 C        -0.819321         1.001656         0.714278
 C        -1.327401         1.011095         2.180388
 C        -2.526781         1.353668         1.281505
 O        -3.792664         1.601612         1.930332
 C        -2.086180         0.309925         0.235106
 C        -2.538051         0.619658        -1.156765
 C        -2.185738         2.102822        -1.129016
 C        -1.730776         2.282522         0.326386
 H         1.174007         0.613363         0.892992
 H        -1.498001         0.000201         2.586541
 H        -0.886488         1.646136         2.912463
 H        -4.405208         0.971074         1.483265
 H        -2.130188        -0.713819         0.622746
 H        -1.966215         0.063756        -1.812536
 H        -3.619120         0.419771        -1.163081
 H        -1.445478         2.262106        -1.896114
 H        -3.121156         2.627260        -1.293155
 H        -1.376789         3.287102         0.671052
