19
Iteration:  4801
 O         0.493166         0.804418         0.232439
 C        -0.794625         1.058946         0.661583
 C        -1.259705         1.189446         2.171804
 C        -2.485772         1.376474         1.295985
 O        -3.857451         1.579805         1.875288
 C        -2.158227         0.242400         0.364610
 C        -2.519073         0.518524        -1.058293
 C        -2.248182         2.033733        -1.209580
 C        -1.665585         2.260944         0.220121
 H         0.906565        -0.055897         0.591060
 H        -1.141634         0.112338         2.565420
 H        -0.810599         2.027433         2.705084
 H        -4.469054         0.830060         1.636017
 H        -2.352941        -0.820886         0.491706
 H        -1.987961        -0.148242        -1.752925
 H        -3.585458         0.381847        -1.068205
 H        -1.593702         2.498184        -1.997979
 H        -3.142269         2.780767        -1.486037
 H        -1.417508         3.266766         0.552700
