19
Iteration:  4487charge 0 multiplicity 1
 O         0.465337         0.864335         0.206033
 C        -0.815719         1.018219         0.703246
 C        -1.247865         1.051822         2.150117
 C        -2.516462         1.366374         1.280197
 O        -3.788664         1.609936         1.638865
 C        -2.189562         0.151199         0.466094
 C        -2.529044         0.526873        -1.020484
 C        -2.227603         2.033251        -1.153850
 C        -1.670757         2.277599         0.344828
 H         0.589298         0.962962        -0.844325
 H        -1.191962         0.095337         2.734847
 H        -0.888594         1.844251         2.748598
 H        -3.939980         2.280742         2.298922
 H        -2.194509        -0.817633         0.973764
 H        -2.027367        -0.205873        -1.713253
 H        -3.569772         0.270233        -1.230569
 H        -1.558116         2.316319        -2.027826
 H        -3.191610         2.398687        -1.020159
 H        -1.487496         3.338157         0.628975
