19
Iteration:  4099
 O         0.469472         0.694348         0.148360
 C        -0.817545         0.996414         0.649842
 C        -1.283531         1.060278         2.248751
 C        -2.557855         1.288459         1.301741
 O        -3.830787         1.503140         1.720406
 C        -2.115259         0.226518         0.290473
 C        -2.569918         0.663637        -1.093878
 C        -2.220090         2.185495        -1.000825
 C        -1.566367         2.242277         0.395491
 H         0.668831         1.314504        -0.593883
 H        -1.471267         0.090442         2.701226
 H        -1.065932         1.825615         2.998494
 H        -4.176612         2.370714         1.557311
 H        -2.134985        -0.845453         0.484585
 H        -1.820594         0.165675        -1.748836
 H        -3.602056         0.381357        -1.333491
 H        -1.680362         2.619336        -1.862244
 H        -3.073924         2.886309        -1.005226
 H        -1.292005         3.235209         0.716610
