19
Iteration:  2667charge 0 multiplicity 1
 O         0.473880         0.565752         0.280834
 C        -0.795769         1.036216         0.650341
 C        -1.237831         1.004452         2.108652
 C        -2.538868         1.336276         1.326389
 O        -3.781688         1.608304         1.798581
 C        -2.069982         0.264735         0.205197
 C        -2.500769         0.647270        -1.191184
 C        -2.356269         2.254098        -0.979076
 C        -1.759675         2.360943         0.362413
 H         0.708226         0.302338        -0.644678
 H        -1.229955         0.042843         2.655663
 H        -0.739078         1.776244         2.728048
 H        -4.157486         0.812324         2.384172
 H        -1.952351        -0.744029         0.611739
 H        -1.670749         0.349688        -1.972148
 H        -3.513247         0.395889        -1.366402
 H        -1.758606         2.662434        -1.812586
 H        -3.340246         2.704164        -1.085723
 H        -1.312397         3.243041         0.753169
