19
Iteration:  3681charge 0 multiplicity 1
 O         0.409741         0.725363         0.017786
 C        -0.818206         0.962707         0.698575
 C        -1.342691         0.912956         2.175144
 C        -2.536393         1.338254         1.376289
 O        -3.773615         1.544171         1.735341
 C        -2.114320         0.255667         0.301639
 C        -2.532389         0.776723        -1.150660
 C        -2.226291         2.224408        -0.941393
 C        -1.589616         2.296957         0.417930
 H         1.194885         0.542731         0.515380
 H        -1.610292        -0.140965         2.526177
 H        -0.999987         1.656402         2.916951
 H        -4.306609         1.064171         1.178957
 H        -2.335344        -0.782214         0.614509
 H        -1.834557         0.233932        -1.803542
 H        -3.537425         0.453089        -1.520979
 H        -1.605570         2.633524        -1.742815
 H        -3.149367         2.907225        -0.984447
 H        -1.074407         3.085857         1.025998
