19
Iteration:  1605
 O         0.347070         0.742922         0.037805
 C        -0.864881         0.964264         0.642840
 C        -1.294655         1.048648         2.142864
 C        -2.520954         1.201784         1.378820
 O        -3.655378         1.652070         1.880155
 C        -2.262534         0.187581         0.263887
 C        -2.395672         0.659964        -1.192824
 C        -2.192827         2.236535        -1.066716
 C        -1.767662         2.217817         0.426295
 H         1.015288         0.885835         0.821782
 H        -1.155788         0.307357         2.932067
 H        -1.008334         2.016054         2.583679
 H        -4.216379         0.976554         2.456730
 H        -2.406858        -0.987908         0.348374
 H        -1.582826         0.290374        -1.813320
 H        -3.399644         0.474195        -1.671405
 H        -1.282819         2.629851        -1.665428
 H        -3.042149         2.901730        -1.379535
 H        -1.401508         3.160140         0.861398
