19
Iteration:  3141
 O         0.453563         0.762313         0.192947
 C        -0.791105         0.950120         0.725662
 C        -1.259759         0.836486         2.138992
 C        -2.522898         1.342856         1.373104
 O        -3.810677         1.618427         1.663563
 C        -2.057648         0.204229         0.239985
 C        -2.593924         0.715302        -1.188692
 C        -2.250541         2.216953        -0.994506
 C        -1.693685         2.263461         0.454399
 H         0.566860         1.045673        -0.701932
 H        -1.209861        -0.158153         2.671614
 H        -0.779190         1.536939         2.844494
 H        -4.034959         1.963002         2.609377
 H        -2.207418        -0.823370         0.602862
 H        -2.006264         0.316670        -2.059092
 H        -3.601989         0.385948        -1.407177
 H        -1.428950         2.388095        -1.748561
 H        -3.125266         2.895378        -1.152800
 H        -1.423920         3.177546         0.958544
