19
Iteration:  4176charge 0 multiplicity 1
 O         0.499261         0.814080         0.101409
 C        -0.821870         1.016235         0.658766
 C        -1.290537         1.033908         2.181192
 C        -2.562904         1.367120         1.300526
 O        -3.815534         1.571521         1.856116
 C        -2.140949         0.127013         0.324366
 C        -2.513347         0.608486        -1.069553
 C        -2.180930         2.143250        -1.090144
 C        -1.690237         2.272405         0.339748
 H         0.936624         0.293593         0.746147
 H        -1.239402         0.096387         2.710947
 H        -0.805370         1.872979         2.703732
 H        -4.499811         1.708315         1.147565
 H        -2.310723        -0.941595         0.477465
 H        -2.105084         0.006768        -1.882328
 H        -3.549688         0.500805        -1.371726
 H        -1.483465         2.659616        -1.807794
 H        -3.083712         2.759558        -1.205007
 H        -1.386640         3.229294         0.734655
