19
Iteration:  3094charge 0 multiplicity 1
 O         0.519340         0.676307         0.305241
 C        -0.827328         0.963614         0.678745
 C        -1.220720         0.952587         2.159761
 C        -2.455658         1.259795         1.306930
 O        -3.811885         1.567909         1.714759
 C        -2.152760         0.247555         0.155454
 C        -2.645376         0.792184        -1.129520
 C        -2.224329         2.217162        -1.005318
 C        -1.761825         2.314071         0.384066
 H         0.714540         1.030597        -0.552167
 H        -1.194469         0.014008         2.713500
 H        -0.776313         1.771864         2.763892
 H        -3.781281         1.035846         2.557443
 H        -2.153937        -0.831539         0.330109
 H        -2.201194         0.265823        -1.985314
 H        -3.717703         0.576881        -1.178953
 H        -1.403152         2.338996        -1.735780
 H        -2.994827         2.871001        -1.282542
 H        -1.356217         3.228855         0.761242
