19
Iteration:  1072charge 0 multiplicity 1
 O         0.422841         0.817847         0.150710
 C        -0.856435         0.959945         0.681918
 C        -1.266062         0.840690         2.109919
 C        -2.390377         1.310840         1.295602
 O        -3.749556         1.615560         1.673541
 C        -2.183262         0.197894         0.227940
 C        -2.691055         0.711411        -1.099065
 C        -2.236242         2.289084        -0.946921
 C        -1.611935         2.299247         0.443146
 H         0.829399        -0.023894         0.658107
 H        -1.263349        -0.187424         2.463779
 H        -0.719431         1.476587         2.887189
 H        -3.995591         0.788897         1.985082
 H        -2.231772        -0.797855         0.534707
 H        -2.179369         0.244299        -1.968480
 H        -3.764545         0.624513        -1.147475
 H        -1.384600         2.523111        -1.711924
 H        -3.144373         3.005357        -0.974027
 H        -1.095640         3.288369         0.836244
