19
Iteration:   956
 O         0.351691         0.752436         0.052390
 C        -0.870531         0.987841         0.636397
 C        -1.210262         0.944292         2.217557
 C        -2.554645         1.200175         1.341236
 O        -3.794406         1.670874         1.813949
 C        -2.106733         0.143436         0.207139
 C        -2.422146         0.758484        -1.241931
 C        -2.193412         2.340323        -0.982870
 C        -1.777046         2.208938         0.489305
 H         0.615725        -0.245712        -0.073305
 H        -0.926124        -0.052860         2.797019
 H        -0.791665         1.829720         2.678331
 H        -3.896599         1.263847         2.639143
 H        -2.245427        -0.979429         0.477557
 H        -1.696914         0.417667        -2.000570
 H        -3.526755         0.507077        -1.517395
 H        -1.389203         2.653576        -1.595464
 H        -3.039142         2.965658        -1.037135
 H        -1.410557         3.047969         1.071572
