19
Iteration:  3465charge 0 multiplicity 1
 O         0.515244         0.555495         0.163018
 C        -0.793333         0.992441         0.691744
 C        -1.359166         1.032197         2.137801
 C        -2.568341         1.245700         1.268523
 O        -3.739681         1.458233         1.978830
 C        -1.994627         0.318502         0.119593
 C        -2.595930         0.774948        -1.177404
 C        -2.219116         2.274144        -1.049817
 C        -1.752779         2.377471         0.355258
 H         0.988509         0.293226         1.023517
 H        -1.511871         0.147746         2.823172
 H        -1.061553         1.919928         2.669270
 H        -4.575133         1.586507         1.527397
 H        -2.221098        -0.722392         0.296377
 H        -1.974865         0.179702        -1.898443
 H        -3.707612         0.551660        -1.178250
 H        -1.476872         2.559929        -1.774410
 H        -3.067048         2.908793        -1.394928
 H        -1.394186         3.337152         0.799476
