19
Iteration:  3265charge 0 multiplicity 1
 O         0.515009         0.855891         0.194805
 C        -0.856868         0.941363         0.597516
 C        -1.323861         0.872063         2.198601
 C        -2.558278         1.286521         1.286220
 O        -3.779131         1.567617         1.787812
 C        -2.224403         0.192458         0.244818
 C        -2.635753         0.691493        -1.107280
 C        -2.148542         2.262908        -0.951143
 C        -1.539311         2.256192         0.396968
 H         0.443213         0.474731        -0.664868
 H        -1.129438        -0.055723         2.693956
 H        -0.982830         1.734709         2.809694
 H        -4.418953         1.258802         0.991898
 H        -2.211488        -0.817161         0.661346
 H        -2.024947         0.310045        -1.927847
 H        -3.709689         0.517862        -1.363889
 H        -1.406856         2.589857        -1.666153
 H        -2.786507         3.189934        -0.791251
 H        -1.099903         3.160474         0.864652
