19
Iteration:  2566
 O         0.520333         0.743675         0.194181
 C        -0.854061         0.895163         0.591124
 C        -1.268622         1.071046         2.121012
 C        -2.506732         1.336061         1.289961
 O        -3.871742         1.528661         1.815474
 C        -2.187706         0.189622         0.260938
 C        -2.645642         0.717931        -1.064597
 C        -2.147288         2.194469        -0.983433
 C        -1.621818         2.302656         0.378193
 H         0.850833         1.175597        -0.664265
 H        -1.372359         0.251741         2.814501
 H        -0.716758         1.881806         2.595890
 H        -4.237258         0.619676         2.276232
 H        -2.262135        -0.868202         0.524170
 H        -2.162823         0.126776        -1.983409
 H        -3.703100         0.630777        -1.337179
 H        -1.239063         2.295767        -1.636775
 H        -2.733336         3.034810        -1.289762
 H        -1.022991         3.184101         0.742858
