19
Iteration:  3348
 O         0.509434         0.686548         0.261745
 C        -0.896893         0.821766         0.607065
 C        -1.262751         1.006167         2.114361
 C        -2.421822         1.380573         1.329947
 O        -3.829130         1.475817         1.928129
 C        -2.213310         0.193477         0.220717
 C        -2.489603         0.738080        -1.204759
 C        -2.319059         2.255291        -1.075569
 C        -1.649633         2.333044         0.432046
 H         0.823083         1.558241        -0.220843
 H        -1.478133        -0.015750         2.546537
 H        -0.721103         1.729102         2.745559
 H        -4.276047         1.965304         1.186551
 H        -2.329960        -0.879420         0.524832
 H        -1.726978         0.361955        -1.943078
 H        -3.462375         0.458620        -1.637574
 H        -1.423480         2.580166        -1.692925
 H        -3.145541         2.915150        -1.196254
 H        -1.109212         3.149494         0.887261
