19
Iteration:  1681
 O         0.552834         0.842419         0.200883
 C        -0.785535         0.886570         0.532367
 C        -1.195291         1.046820         2.203024
 C        -2.505860         1.246086         1.317902
 O        -3.796033         1.664011         1.645445
 C        -2.119971         0.151097         0.211672
 C        -2.719624         0.715427        -1.071185
 C        -2.291802         2.199029        -0.922988
 C        -1.647382         2.198035         0.415822
 H         0.832390         0.066067         0.623937
 H        -1.117526         0.205323         2.987962
 H        -0.873492         2.005681         2.583164
 H        -4.298944         0.986514         2.050051
 H        -2.176320        -0.983037         0.403315
 H        -2.366038         0.258986        -1.998024
 H        -3.840764         0.617224        -1.124456
 H        -1.613179         2.565641        -1.788501
 H        -3.155749         2.920002        -0.994665
 H        -1.306704         3.119061         0.778930
