19
Iteration:   696charge 0 multiplicity 1
 O         0.407946         0.699285         0.088291
 C        -0.858786         0.932271         0.630175
 C        -1.212656         0.894463         2.212121
 C        -2.429016         1.397058         1.420562
 O        -3.763031         1.400008         1.693302
 C        -2.190633         0.295632         0.228031
 C        -2.665885         0.781998        -1.131692
 C        -2.177883         2.228351        -0.999391
 C        -1.623130         2.250429         0.457295
 H         1.040893         1.434823         0.314121
 H        -1.423093        -0.121135         2.600255
 H        -0.770256         1.684004         2.948764
 H        -4.172536         2.200103         1.642346
 H        -2.342084        -0.711945         0.679397
 H        -2.269612         0.242393        -1.982763
 H        -3.753033         0.729898        -1.223507
 H        -1.440244         2.536916        -1.756620
 H        -3.024195         3.030986        -1.081833
 H        -1.266852         3.180700         0.854204
