19
Iteration:   899charge 0 multiplicity 1
 O         0.533953         0.825115         0.194752
 C        -0.788515         0.901376         0.630436
 C        -1.192224         0.925178         2.169410
 C        -2.510879         1.250278         1.317622
 O        -3.788702         1.604735         1.743729
 C        -2.150665         0.177532         0.160674
 C        -2.702542         0.830220        -1.130841
 C        -2.254639         2.284759        -0.993487
 C        -1.686061         2.204690         0.421462
 H         0.979458         0.038673         0.321529
 H        -1.300458        -0.103615         2.767492
 H        -0.742218         1.737921         2.788714
 H        -4.120346         1.008089         2.483322
 H        -2.348450        -0.924091         0.237857
 H        -2.350308         0.321933        -2.056900
 H        -3.798464         0.670036        -1.137550
 H        -1.606849         2.553259        -1.823815
 H        -3.037430         2.987198        -1.090548
 H        -1.168884         3.127016         0.895534
