19
Iteration:   852
 O         0.592592         0.750116         0.055587
 C        -0.815774         0.954125         0.651460
 C        -1.264919         0.850431         2.165817
 C        -2.493497         1.354943         1.369603
 O        -3.898115         1.563104         1.858938
 C        -2.172399         0.266908         0.234395
 C        -2.598430         0.834704        -1.119699
 C        -2.248778         2.200627        -1.047042
 C        -1.645249         2.276460         0.383723
 H         1.182587         0.122825         0.571242
 H        -1.309304        -0.228614         2.550014
 H        -0.795212         1.657329         2.890737
 H        -4.232877         0.539527         1.749860
 H        -2.423087        -0.693520         0.515241
 H        -2.202576         0.338648        -1.991797
 H        -3.606522         0.666042        -1.194855
 H        -1.521312         2.652873        -1.744060
 H        -3.066539         2.972632        -1.158094
 H        -1.267009         3.283779         0.827113
