19
Iteration:  4562
 O         0.516005         0.736121         0.377759
 C        -0.845080         1.047052         0.698870
 C        -1.247719         1.176251         2.145280
 C        -2.511012         1.454565         1.293099
 O        -3.783773         1.465467         1.800082
 C        -2.111132         0.248667         0.273058
 C        -2.577500         0.491555        -1.159689
 C        -2.323105         2.045894        -1.111584
 C        -1.645097         2.327336         0.198479
 H         0.505871         0.456697        -0.476971
 H        -1.285798         0.231362         2.748053
 H        -0.732667         1.837788         2.804164
 H        -4.057474         2.242862         2.355343
 H        -2.166702        -0.774164         0.611508
 H        -1.848176        -0.141032        -1.786101
 H        -3.631205         0.363581        -1.306808
 H        -1.799353         2.479987        -2.008859
 H        -3.307903         2.466529        -1.002924
 H        -1.260377         3.286879         0.481973
