19
Iteration:   266
 O         0.513029         0.708893         0.156443
 C        -0.787453         1.026672         0.666366
 C        -1.309262         0.964695         2.143899
 C        -2.521968         1.177079         1.243122
 O        -3.817236         1.597649         1.683157
 C        -1.989676         0.184311         0.181855
 C        -2.611927         0.738144        -1.046670
 C        -2.296391         2.284126        -0.909059
 C        -1.689246         2.280567         0.425309
 H         0.460142        -0.162530        -0.284555
 H        -1.291942         0.007298         2.679399
 H        -1.134019         1.871546         2.771843
 H        -3.642796         2.081050         2.472063
 H        -2.048175        -0.942927         0.351026
 H        -2.025641         0.399530        -1.931438
 H        -3.664764         0.408037        -1.086665
 H        -1.666247         2.611457        -1.685221
 H        -3.127083         2.959259        -0.995552
 H        -1.516928         3.169112         1.120600
