19
Iteration:  1584charge 0 multiplicity 1
 O         0.369839         0.699969         0.041303
 C        -0.836135         0.976260         0.690545
 C        -1.187144         0.960878         2.163373
 C        -2.556329         1.355542         1.308060
 O        -3.888299         1.680376         1.894241
 C        -2.069751         0.199612         0.227959
 C        -2.486744         0.667233        -1.188500
 C        -2.186273         2.167070        -1.012901
 C        -1.689845         2.240351         0.387922
 H         0.947179         1.172745         0.578405
 H        -1.218512         0.035797         2.745650
 H        -0.757417         1.794563         2.784599
 H        -4.099468         0.763650         2.286610
 H        -2.131982        -0.952399         0.528629
 H        -1.834079         0.262377        -1.985520
 H        -3.587598         0.523906        -1.430115
 H        -1.466577         2.608230        -1.764284
 H        -3.071225         2.815670        -1.129331
 H        -1.345026         3.262127         0.803501
