19
Iteration:  2974charge 0 multiplicity 1
 O         0.485058         0.760660         0.295038
 C        -0.817549         0.928917         0.689096
 C        -1.246669         0.965764         2.058675
 C        -2.514942         1.326625         1.337263
 O        -3.830729         1.496773         1.812021
 C        -2.118989         0.262018         0.265308
 C        -2.596086         0.651362        -1.144948
 C        -2.289613         2.247203        -1.058908
 C        -1.622818         2.230159         0.365556
 H         0.727716         0.777076        -0.680096
 H        -1.192162        -0.032583         2.552087
 H        -0.839978         1.859170         2.670466
 H        -3.919158         2.352351         2.219303
 H        -2.300425        -0.824333         0.429838
 H        -1.987730         0.403197        -2.050006
 H        -3.655460         0.520913        -1.376954
 H        -1.450082         2.527789        -1.855080
 H        -3.143469         2.976006        -1.200383
 H        -1.229682         3.140657         0.754025
