19
Iteration:  1175charge 0 multiplicity 1
 O         0.468288         0.666899         0.179616
 C        -0.821428         0.976834         0.630933
 C        -1.295871         0.850522         2.114053
 C        -2.525560         1.295715         1.344539
 O        -3.779421         1.647212         1.782990
 C        -2.069648         0.241780         0.190332
 C        -2.570820         0.694513        -1.074516
 C        -2.241151         2.260359        -1.029130
 C        -1.667186         2.329519         0.440298
 H         0.847905         1.440969        -0.136927
 H        -1.229729        -0.272162         2.512521
 H        -0.869417         1.642638         2.727648
 H        -4.266025         0.799186         2.124445
 H        -2.274667        -0.873627         0.415999
 H        -2.285279         0.254554        -1.984352
 H        -3.666642         0.642131        -1.105697
 H        -1.570157         2.550243        -1.819266
 H        -3.088092         2.923509        -1.064141
 H        -1.315310         3.249931         0.841114
