19
Iteration:  1890charge 0 multiplicity 1
 O         0.435688         0.825229         0.100215
 C        -0.759603         0.911780         0.718323
 C        -1.201768         0.893188         2.208137
 C        -2.502383         1.445339         1.395487
 O        -3.874894         1.574777         1.730949
 C        -2.097883         0.196667         0.271284
 C        -2.620227         0.701296        -1.126458
 C        -2.150677         2.228302        -1.111101
 C        -1.701496         2.293150         0.373247
 H         0.776219        -0.136300         0.305603
 H        -1.338649        -0.158259         2.719020
 H        -0.696343         1.692713         2.908932
 H        -4.092785         0.653043         2.265888
 H        -2.143942        -0.856813         0.645615
 H        -2.308879         0.085883        -2.009982
 H        -3.758510         0.772367        -0.925972
 H        -1.404278         2.529054        -2.007202
 H        -3.094643         2.804044        -1.232110
 H        -1.500962         3.364152         0.588478
