19
Iteration:  3994charge 0 multiplicity 1
 O         0.533606         0.741969         0.273392
 C        -0.788205         1.070982         0.625890
 C        -1.208058         0.936872         2.098880
 C        -2.530652         1.259994         1.293909
 O        -3.887825         1.451393         1.903121
 C        -2.271539         0.298312         0.239825
 C        -2.575828         0.678353        -1.153597
 C        -2.109793         2.276095        -1.118476
 C        -1.661615         2.297014         0.387925
 H         0.272358        -0.162546        -0.232969
 H        -1.113926        -0.054900         2.512752
 H        -0.765400         1.685108         2.850549
 H        -4.137887         2.431538         1.826512
 H        -2.243942        -0.733348         0.619624
 H        -2.011821        -0.129277        -1.678668
 H        -3.561725         0.658416        -1.627018
 H        -1.268248         2.519728        -1.810962
 H        -3.072648         2.758454        -1.284335
 H        -1.678080         3.294464         0.825949
