19
Iteration:  3873
 O         0.581444         0.652825         0.207328
 C        -0.805401         0.881291         0.668019
 C        -1.334667         1.008128         2.108737
 C        -2.548849         1.325622         1.238927
 O        -3.855038         1.572254         1.861154
 C        -2.024379         0.220796         0.170795
 C        -2.568771         0.808495        -1.230416
 C        -2.269412         2.238264        -0.986511
 C        -1.753065         2.274843         0.404603
 H         0.970012         0.084487         0.857606
 H        -1.357267         0.103249         2.678832
 H        -0.919074         1.944056         2.605793
 H        -3.504440         1.458500         2.809576
 H        -2.212786        -0.852569         0.294951
 H        -2.311071         0.370119        -2.195180
 H        -3.608374         0.691568        -1.466623
 H        -1.440020         2.702486        -1.596458
 H        -3.176458         2.788454        -1.092621
 H        -1.408713         3.190993         0.822778
