19
Iteration:  4218charge 0 multiplicity 1
 O         0.515860         0.831785         0.167665
 C        -0.790561         0.984113         0.686836
 C        -1.219318         1.045511         2.203151
 C        -2.463714         1.338493         1.339682
 O        -3.887728         1.619872         1.602132
 C        -2.072293         0.127448         0.361644
 C        -2.532024         0.582124        -1.099785
 C        -2.278975         2.150993        -1.034567
 C        -1.719601         2.251437         0.372256
 H         0.492249         0.038877        -0.530461
 H        -1.334931         0.084566         2.717783
 H        -1.026644         1.863687         2.863496
 H        -3.912345         2.083627         2.496337
 H        -2.066404        -0.822662         0.895554
 H        -2.211662         0.060111        -1.969504
 H        -3.636449         0.461909        -1.054892
 H        -1.742462         2.519442        -1.893805
 H        -3.219317         2.643017        -1.262493
 H        -1.467847         3.256779         0.775215
