19
Iteration:  2977charge 0 multiplicity 1
 O         0.469462         0.750379         0.281662
 C        -0.822942         0.921639         0.674823
 C        -1.281765         0.967108         2.077722
 C        -2.496301         1.336205         1.325858
 O        -3.806537         1.507032         1.817670
 C        -2.075543         0.265494         0.261612
 C        -2.571448         0.662535        -1.148628
 C        -2.287064         2.223892        -1.044447
 C        -1.659064         2.254648         0.374269
 H         0.644061         0.784757        -0.701212
 H        -1.230282        -0.050077         2.512523
 H        -0.824957         1.697870         2.787224
 H        -3.947949         2.414835         2.069111
 H        -2.282032        -0.785956         0.421520
 H        -2.004090         0.390115        -2.085691
 H        -3.635397         0.462220        -1.280061
 H        -1.550047         2.490617        -1.873568
 H        -3.176268         2.931602        -1.298789
 H        -1.269313         3.132572         0.925590
