19
Iteration:  4860charge 0 multiplicity 1
 O         0.502920         0.751846         0.221167
 C        -0.760208         1.057705         0.667289
 C        -1.267408         1.109894         2.180497
 C        -2.516841         1.390973         1.325264
 O        -3.868174         1.577263         1.736330
 C        -2.076678         0.189735         0.364872
 C        -2.579175         0.492943        -1.066698
 C        -2.334276         2.030826        -1.089536
 C        -1.711614         2.271778         0.266199
 H         1.077085         1.592914         0.170294
 H        -1.177911         0.153047         2.642391
 H        -0.780089         1.811859         2.906837
 H        -3.858829         2.509070         1.450222
 H        -1.981077        -0.886435         0.578113
 H        -2.041358        -0.073905        -1.837880
 H        -3.615461         0.249901        -1.273305
 H        -1.462538         2.281425        -1.718507
 H        -3.203141         2.611292        -1.259756
 H        -1.165148         3.125948         0.560118
