19
Iteration:  2271charge 0 multiplicity 1
 O         0.452873         0.716356         0.046956
 C        -0.859317         1.044456         0.642117
 C        -1.309946         0.974160         2.120400
 C        -2.515915         1.385650         1.288543
 O        -3.761126         1.554620         1.808991
 C        -2.187371         0.255650         0.326214
 C        -2.506274         0.698428        -1.085070
 C        -2.197876         2.235094        -1.013838
 C        -1.702186         2.263775         0.426752
 H         0.692897        -0.232949         0.119675
 H        -1.390440        -0.046911         2.640310
 H        -0.895302         1.653899         2.874594
 H        -4.181852         0.642516         2.024605
 H        -2.120751        -0.768036         0.713691
 H        -1.669771         0.338000        -1.700873
 H        -3.422309         0.463961        -1.494513
 H        -1.277648         2.387397        -1.580690
 H        -3.026323         2.900492        -1.349978
 H        -1.432283         3.225507         0.901667
