19
Iteration:  3022charge 0 multiplicity 1
 O         0.439690         0.772083         0.166397
 C        -0.896300         0.929956         0.649850
 C        -1.216667         0.955682         2.151820
 C        -2.518706         1.335989         1.319204
 O        -3.837045         1.624937         1.811487
 C        -2.078982         0.149576         0.212138
 C        -2.466246         0.722915        -1.097864
 C        -2.269453         2.211212        -1.005730
 C        -1.651714         2.231829         0.499941
 H         0.493515         0.584627        -0.795935
 H        -1.358968         0.003578         2.706538
 H        -0.720877         1.738230         2.720203
 H        -4.512521         1.536834         1.125365
 H        -2.292339        -0.890495         0.461537
 H        -1.762151         0.271804        -1.844315
 H        -3.469944         0.421865        -1.425729
 H        -1.500308         2.624170        -1.687702
 H        -3.198419         2.904108        -1.082344
 H        -1.142052         3.182216         0.746485
