19
Iteration:  3553charge 0 multiplicity 1
 O         0.365497         0.647929         0.095341
 C        -0.867730         0.973598         0.747034
 C        -1.283745         0.961655         2.190836
 C        -2.577896         1.292492         1.342094
 O        -3.744435         1.569236         1.787846
 C        -1.967718         0.169683         0.165616
 C        -2.544990         0.720385        -1.154263
 C        -2.229206         2.264328        -0.996150
 C        -1.713272         2.273144         0.529528
 H         0.928116         1.448271        -0.117985
 H        -1.232944        -0.083078         2.646759
 H        -0.845580         1.633846         2.896244
 H        -4.199477         2.066176         1.018284
 H        -2.051109        -0.919884         0.307147
 H        -1.980649         0.420802        -2.116448
 H        -3.643867         0.610237        -1.427801
 H        -1.351412         2.514566        -1.600379
 H        -3.048605         2.949487        -1.331413
 H        -1.300263         3.183822         1.016800
