19
Iteration:  3723
 O         0.457920         0.647461         0.239349
 C        -0.824748         0.977830         0.590631
 C        -1.254238         1.009650         2.143254
 C        -2.461404         1.265051         1.294337
 O        -3.754586         1.542931         1.884246
 C        -2.171376         0.227302         0.156549
 C        -2.539018         0.803272        -1.183884
 C        -2.249173         2.297409        -1.033714
 C        -1.739196         2.235568         0.464145
 H         0.764676         0.245430         1.008352
 H        -1.256288         0.026117         2.574669
 H        -0.902898         1.926473         2.686290
 H        -4.427509         1.108259         1.345106
 H        -2.165346        -0.868679         0.224295
 H        -1.908706         0.373906        -1.951781
 H        -3.619598         0.716699        -1.486288
 H        -1.425129         2.666726        -1.676487
 H        -3.115524         2.911914        -1.354293
 H        -1.324865         3.226296         0.792791
