19
Iteration:  3897charge 0 multiplicity 1
 O         0.503407         0.705706         0.244223
 C        -0.772874         1.024537         0.668379
 C        -1.320569         0.940200         2.130307
 C        -2.498525         1.243220         1.277016
 O        -3.752195         1.617122         1.829665
 C        -2.212979         0.219426         0.197607
 C        -2.592587         0.743992        -1.174031
 C        -2.281809         2.305340        -1.041589
 C        -1.631468         2.245819         0.340884
 H         0.903310         0.225902         1.102255
 H        -1.128183        -0.026055         2.526810
 H        -0.936346         1.754547         2.753728
 H        -4.031854         0.736936         2.276895
 H        -2.492596        -0.866191         0.218270
 H        -2.032675         0.278329        -1.954018
 H        -3.576871         0.426353        -1.602222
 H        -1.553062         2.659326        -1.788427
 H        -3.160949         2.934970        -0.982418
 H        -1.278041         3.221549         0.791007
