19
Iteration:  2501
 O         0.554568         0.744946         0.226013
 C        -0.757626         0.963065         0.649665
 C        -1.237418         0.900788         2.191440
 C        -2.535287         1.304118         1.354002
 O        -3.823450         1.739936         1.751602
 C        -2.125836         0.186568         0.224250
 C        -2.501833         0.716893        -1.177398
 C        -2.363318         2.192483        -0.973113
 C        -1.695343         2.252906         0.361823
 H         0.481012         0.449927        -0.637155
 H        -1.298465        -0.120852         2.669851
 H        -0.786528         1.506208         2.994373
 H        -4.194423         1.032883         2.233499
 H        -2.237477        -0.865949         0.493322
 H        -1.882855         0.175395        -2.035663
 H        -3.558485         0.589710        -1.432870
 H        -1.914550         2.648508        -1.880931
 H        -3.373968         2.583825        -0.990219
 H        -1.324484         3.224943         0.690147
