19
Iteration:  1590
 O         0.351890         0.723127         0.048296
 C        -0.893977         0.932986         0.677139
 C        -1.200275         1.028502         2.190181
 C        -2.563410         1.313435         1.338178
 O        -3.839139         1.669512         1.904063
 C        -2.081513         0.173066         0.209321
 C        -2.484852         0.683211        -1.214618
 C        -2.185363         2.205607        -1.040929
 C        -1.681726         2.236769         0.415283
 H         1.124593         1.087569         0.565587
 H        -1.147558        -0.014254         2.625073
 H        -0.817705         1.888318         2.695465
 H        -4.142760         0.911654         2.294617
 H        -2.147177        -0.809926         0.504566
 H        -1.775496         0.189388        -1.885820
 H        -3.449206         0.329312        -1.535146
 H        -1.420350         2.500073        -1.757375
 H        -3.084185         2.844672        -1.201470
 H        -1.260141         3.085729         0.868416
