19
Iteration:  2737
 O         0.563210         0.845657         0.195275
 C        -0.841408         0.945727         0.670178
 C        -1.253994         0.885162         2.133284
 C        -2.553684         1.243601         1.269469
 O        -3.773456         1.725448         1.738191
 C        -2.149169         0.174543         0.308772
 C        -2.638565         0.671281        -1.063178
 C        -2.162996         2.163132        -1.051144
 C        -1.716650         2.242477         0.407595
 H         0.367725         1.292865        -0.710703
 H        -1.225887        -0.159101         2.567584
 H        -0.945702         1.690634         2.841274
 H        -4.222249         0.830931         2.129385
 H        -2.235026        -0.903979         0.490240
 H        -2.089423         0.063116        -1.811507
 H        -3.777548         0.683213        -1.033052
 H        -1.394513         2.462328        -1.745681
 H        -2.980342         2.933580        -1.233108
 H        -1.328702         3.237130         0.782762
