19
Iteration:  2148
 O         0.427478         0.728866         0.163804
 C        -0.780363         0.970562         0.683836
 C        -1.174663         0.998923         2.214465
 C        -2.429050         1.329013         1.250417
 O        -3.860702         1.619079         1.689586
 C        -2.121760         0.206946         0.207692
 C        -2.538062         0.694316        -1.221586
 C        -2.359829         2.254921        -0.925511
 C        -1.640216         2.239820         0.419970
 H         0.700856        -0.291464         0.405398
 H        -0.968953         0.030183         2.764462
 H        -0.956808         1.967455         2.763350
 H        -4.121306         1.243847         2.618653
 H        -2.210023        -0.865952         0.394943
 H        -1.955006         0.147477        -1.931696
 H        -3.465551         0.313286        -1.382997
 H        -1.912605         2.799882        -1.682004
 H        -3.326851         2.797426        -0.865386
 H        -1.323416         3.138876         1.008033
