19
Iteration:  2324charge 0 multiplicity 1
 O         0.560863         0.780925         0.225604
 C        -0.804140         0.935258         0.680005
 C        -1.269276         0.969168         2.104270
 C        -2.527145         1.247543         1.215655
 O        -3.699303         1.699865         1.701560
 C        -2.194456         0.140775         0.187964
 C        -2.547081         0.708972        -1.124157
 C        -2.369517         2.233741        -0.906583
 C        -1.692765         2.247965         0.424175
 H         0.906482        -0.084677         0.077813
 H        -1.128221         0.007573         2.737914
 H        -0.986516         1.938616         2.570139
 H        -4.094729         1.208579         2.514146
 H        -2.514714        -0.886339         0.512059
 H        -1.835477         0.332236        -1.948734
 H        -3.535959         0.468042        -1.496812
 H        -1.805860         2.826089        -1.602038
 H        -3.438149         2.612676        -0.791039
 H        -1.490748         3.264764         0.919691
