19
Iteration:  4688
 O         0.596891         0.698300         0.430075
 C        -0.757716         1.095970         0.654391
 C        -1.279886         1.190553         2.100780
 C        -2.547862         1.368217         1.282040
 O        -3.798378         1.504826         1.779481
 C        -2.109583         0.198854         0.266028
 C        -2.650674         0.557371        -1.098626
 C        -2.329499         2.030627        -1.173734
 C        -1.739467         2.294008         0.282242
 H         0.799411         0.714263        -0.449824
 H        -0.980027         0.374005         2.721562
 H        -1.043728         2.224776         2.489251
 H        -3.693456         1.965202         2.641778
 H        -1.994746        -0.849404         0.598763
 H        -2.115555         0.058525        -1.910400
 H        -3.764566         0.236353        -1.145440
 H        -1.662423         2.363037        -1.927670
 H        -3.141191         2.744785        -1.398159
 H        -1.204014         3.258494         0.586749
