19
Iteration:  3701
 O         0.463544         0.625716         0.097286
 C        -0.831208         0.999659         0.648155
 C        -1.184769         0.922497         2.193233
 C        -2.533297         1.265221         1.288732
 O        -3.914327         1.597860         1.831485
 C        -2.102844         0.232236         0.225538
 C        -2.498115         0.758022        -1.189570
 C        -2.201147         2.307809        -0.964734
 C        -1.712484         2.301086         0.447511
 H         1.067073         0.248484         0.858013
 H        -0.984616        -0.072815         2.540400
 H        -0.732001         1.851033         2.567115
 H        -4.598104         1.147889         1.229912
 H        -2.077452        -0.827210         0.516655
 H        -1.958351         0.317820        -2.005283
 H        -3.565800         0.400311        -1.184591
 H        -1.534706         2.721494        -1.741383
 H        -3.061292         3.014089        -1.031688
 H        -1.578322         3.357435         0.913700
