19
Iteration:   415charge 0 multiplicity 1
 O         0.455852         0.608019         0.105664
 C        -0.798056         1.007194         0.628356
 C        -1.224675         0.953894         2.125723
 C        -2.519944         1.216208         1.320493
 O        -3.829555         1.541056         1.627761
 C        -2.095572         0.234261         0.234164
 C        -2.597384         0.736379        -1.044811
 C        -2.271257         2.251781        -0.930502
 C        -1.706099         2.323306         0.511816
 H         1.267568         1.230036         0.108867
 H        -1.165001         0.097833         2.724239
 H        -0.955075         1.823242         2.729353
 H        -3.763761         2.332116         2.332218
 H        -1.969889        -0.786030         0.389785
 H        -2.125635         0.192450        -1.847691
 H        -3.646936         0.603480        -1.220905
 H        -1.486390         2.574201        -1.692167
 H        -3.200211         2.817705        -1.183609
 H        -1.424789         3.212832         1.083578
