19
Iteration:   726
 O         0.559840         0.586500         0.250095
 C        -0.805954         0.992504         0.596511
 C        -1.230832         0.968609         2.082432
 C        -2.547974         1.254981         1.298475
 O        -3.880535         1.469057         1.813158
 C        -2.084756         0.225454         0.181700
 C        -2.654923         0.785639        -1.096974
 C        -2.220589         2.342200        -1.039618
 C        -1.650915         2.257413         0.432578
 H         1.023889         1.236930        -0.408362
 H        -1.224733        -0.042316         2.489108
 H        -1.017716         1.764426         2.748005
 H        -3.766902         2.295021         2.419866
 H        -2.092302        -0.930688         0.438183
 H        -2.462836         0.396101        -2.118320
 H        -3.763655         0.900219        -0.849261
 H        -1.530187         2.580054        -1.921403
 H        -3.192847         2.964928        -0.895985
 H        -1.487355         3.181018         0.935209
