19
Iteration:   867charge 0 multiplicity 1
 O         0.509356         0.736553         0.152646
 C        -0.751563         1.023613         0.617586
 C        -1.239751         0.913260         2.083090
 C        -2.539180         1.243130         1.278158
 O        -3.785778         1.561766         1.819648
 C        -2.115024         0.246989         0.212917
 C        -2.716831         0.747499        -1.095674
 C        -2.199564         2.337252        -1.005543
 C        -1.679938         2.283870         0.436096
 H         0.864779        -0.011986         0.782796
 H        -1.223254        -0.150655         2.565526
 H        -0.867784         1.573313         2.862203
 H        -4.338749         0.827304         1.989138
 H        -2.096463        -0.895325         0.362013
 H        -2.335725         0.173205        -1.984327
 H        -3.881780         0.672266        -1.115030
 H        -1.446314         2.409704        -1.781780
 H        -2.999030         3.001372        -1.174012
 H        -1.346031         3.264662         0.922042
