19
Iteration:  3964
 O         0.338247         0.833647         0.054729
 C        -0.822606         0.882585         0.679086
 C        -1.349339         1.007003         2.271321
 C        -2.472466         1.308240         1.328707
 O        -3.804259         1.540642         1.789881
 C        -2.053968         0.181762         0.182569
 C        -2.505640         0.692638        -1.115950
 C        -2.123119         2.236166        -0.967034
 C        -1.634979         2.249934         0.453662
 H         0.437855         0.012280        -0.287996
 H        -1.463840         0.084555         2.829254
 H        -1.058355         1.886616         2.816418
 H        -4.245510         1.956170         1.086528
 H        -2.229582        -0.873708         0.566065
 H        -2.244068         0.068595        -1.934133
 H        -3.635476         0.593277        -1.301462
 H        -1.353988         2.666018        -1.615033
 H        -2.971966         2.858961        -1.308278
 H        -1.229346         3.232716         0.960863
