19
Iteration:  1844
 O         0.570257         0.793795         0.210137
 C        -0.781724         0.890953         0.677027
 C        -1.187017         1.055384         2.200984
 C        -2.509384         1.216846         1.292429
 O        -3.776047         1.687852         1.685979
 C        -2.039004         0.170420         0.233247
 C        -2.691720         0.731027        -1.139700
 C        -2.355647         2.252411        -1.007961
 C        -1.709764         2.164469         0.393863
 H         0.811204        -0.204142         0.448989
 H        -1.050054         0.103655         2.784637
 H        -0.827997         1.967767         2.658262
 H        -4.443230         0.874329         1.783110
 H        -2.277864        -0.834656         0.432759
 H        -2.439187         0.248532        -2.101223
 H        -3.781765         0.823762        -0.932865
 H        -1.702199         2.808761        -1.728780
 H        -3.317382         2.786937        -0.904330
 H        -1.376853         3.121784         0.728431
