19
Iteration:  3800charge 0 multiplicity 1
 O         0.388102         0.859505         0.052145
 C        -0.844483         1.002895         0.669031
 C        -1.306987         0.935849         2.243628
 C        -2.553637         1.155697         1.376769
 O        -3.800546         1.588326         1.752995
 C        -2.079225         0.167081         0.195097
 C        -2.525198         0.763597        -1.089270
 C        -2.103952         2.217374        -0.955443
 C        -1.666391         2.188855         0.467191
 H         0.581188        -0.136714        -0.224924
 H        -1.224301        -0.065501         2.703001
 H        -1.028930         1.857604         2.790509
 H        -4.053822         2.503475         1.304448
 H        -2.264825        -0.948694         0.348296
 H        -2.217812         0.300999        -2.024155
 H        -3.639304         0.624308        -1.340011
 H        -1.292254         2.459977        -1.644449
 H        -2.906988         2.965535        -1.181190
 H        -1.394337         3.270234         0.817796
