19
Iteration:  2492charge 0 multiplicity 1
 O         0.523881         0.804554         0.232978
 C        -0.837024         0.950906         0.650891
 C        -1.250161         0.859863         2.242312
 C        -2.454714         1.255125         1.381911
 O        -3.764580         1.733810         1.710174
 C        -2.173870         0.198476         0.247232
 C        -2.558813         0.704460        -1.192514
 C        -2.389510         2.228922        -1.005933
 C        -1.616851         2.192210         0.332864
 H         0.443838         0.389589        -0.572257
 H        -1.254696        -0.089940         2.897871
 H        -0.958484         1.850284         2.695663
 H        -4.224282         1.120133         2.246520
 H        -2.133458        -0.842581         0.519526
 H        -1.732267         0.380028        -1.921453
 H        -3.415530         0.301998        -1.639446
 H        -1.782705         2.831259        -1.739945
 H        -3.292169         2.804921        -0.821350
 H        -1.421811         3.141651         0.675344
