19
Iteration:  4741charge 0 multiplicity 1
 O         0.457781         0.859672         0.126017
 C        -0.775338         1.052833         0.710955
 C        -1.247209         1.126530         2.203784
 C        -2.546919         1.316652         1.301285
 O        -3.857593         1.716289         1.617111
 C        -2.069069         0.122354         0.381446
 C        -2.514171         0.478652        -1.099077
 C        -2.242410         2.013187        -1.032494
 C        -1.732203         2.243885         0.398990
 H         0.502980         0.290857        -0.560356
 H        -1.059417         0.235438         2.766998
 H        -0.821313         2.011035         2.723795
 H        -3.826583         1.643520         2.588532
 H        -2.053019        -0.889592         0.848805
 H        -2.004046        -0.045094        -1.939528
 H        -3.579413         0.083672        -1.337740
 H        -1.392086         2.358474        -1.676304
 H        -3.076583         2.700902        -1.145040
 H        -1.767029         3.328720         0.766314
