19
Iteration:  1859charge 0 multiplicity 1
 O         0.529889         0.772102         0.215801
 C        -0.732468         1.045466         0.643950
 C        -1.233147         1.017700         2.109525
 C        -2.489940         1.264547         1.308986
 O        -3.802284         1.620278         1.647783
 C        -2.142030         0.160240         0.186554
 C        -2.780145         0.706000        -1.076892
 C        -2.288233         2.193107        -0.900131
 C        -1.572724         2.258899         0.412782
 H         0.693179        -0.161295         0.332046
 H        -1.054318         0.119593         2.853700
 H        -0.925023         2.019909         2.728297
 H        -4.264121         0.866564         1.794241
 H        -1.962061        -0.934523         0.484833
 H        -2.313595         0.242051        -1.983376
 H        -3.874100         0.421370        -1.077557
 H        -1.613769         2.394050        -1.872111
 H        -3.106832         2.953854        -0.920954
 H        -1.351364         3.232564         0.930574
