19
Iteration:  2546charge 0 multiplicity 1
 O         0.476259         0.643513         0.242154
 C        -0.822524         0.980879         0.709725
 C        -1.173536         1.099919         2.171107
 C        -2.538402         1.303506         1.332632
 O        -3.805228         1.529574         1.804914
 C        -2.178443         0.219515         0.239211
 C        -2.612871         0.784423        -1.162218
 C        -2.177970         2.203635        -1.149462
 C        -1.671803         2.229111         0.371179
 H         0.409131         1.175351        -0.512634
 H        -0.981762         0.135312         2.751198
 H        -0.856594         1.910465         2.858588
 H        -4.078353         0.694628         2.186677
 H        -2.409174        -0.800481         0.481275
 H        -2.154144         0.141869        -2.090824
 H        -3.659872         0.580180        -1.205170
 H        -1.483552         2.790527        -1.782261
 H        -3.043404         2.836311        -1.149966
 H        -1.368584         3.085193         0.877025
