19
Iteration:   712
 O         0.451055         0.617263         0.201291
 C        -0.767493         0.995404         0.684929
 C        -1.284870         0.914952         2.138372
 C        -2.477669         1.250726         1.265981
 O        -3.769610         1.410576         1.761821
 C        -2.109332         0.243322         0.213600
 C        -2.725696         0.835577        -1.073781
 C        -2.251708         2.293242        -0.986440
 C        -1.626824         2.336692         0.370716
 H         0.825267         1.409108        -0.060188
 H        -1.175541        -0.016035         2.705203
 H        -0.823914         1.644259         2.787091
 H        -3.919930         2.378632         1.951046
 H        -2.250982        -0.829046         0.390499
 H        -2.283120         0.268390        -1.933406
 H        -3.800613         0.588133        -1.181289
 H        -1.455804         2.502088        -1.723381
 H        -2.937137         3.026905        -1.263361
 H        -1.159055         3.299473         0.868414
