19
Iteration:  4083
 O         0.441475         0.704818         0.163420
 C        -0.788667         0.988443         0.760603
 C        -1.287831         0.907689         2.158111
 C        -2.476015         1.383813         1.313084
 O        -3.831934         1.544429         1.672450
 C        -2.091239         0.235421         0.311713
 C        -2.486267         0.672729        -1.052539
 C        -2.273636         2.182439        -0.971200
 C        -1.671719         2.314765         0.392239
 H         0.433277         1.122686        -0.813458
 H        -1.172078        -0.096009         2.606951
 H        -0.726585         1.690560         2.702455
 H        -4.230913         1.926783         0.838195
 H        -2.275027        -0.713262         0.891093
 H        -2.182641         0.104032        -1.925672
 H        -3.559588         0.447854        -1.223433
 H        -1.650024         2.558812        -1.796179
 H        -3.259543         2.691125        -1.149016
 H        -1.220847         3.224727         0.870920
