19
Iteration:   220
 O         0.400999         0.868096         0.135940
 C        -0.901873         0.928502         0.612569
 C        -1.271893         0.912467         2.005931
 C        -2.517291         1.349257         1.303534
 O        -3.801380         1.374453         1.793047
 C        -2.240682         0.266950         0.348703
 C        -2.535531         0.759019        -1.065464
 C        -2.133686         2.258587        -1.006760
 C        -1.582688         2.247301         0.408696
 H         0.788483         0.023570         0.659858
 H        -1.197384        -0.099319         2.350590
 H        -0.796224         1.689566         2.691443
 H        -3.982162         2.362688         2.031406
 H        -2.395982        -0.717413         0.701797
 H        -1.956481         0.198640        -1.834018
 H        -3.608263         0.699176        -1.277897
 H        -1.361534         2.516877        -1.676359
 H        -2.892039         2.946616        -1.331818
 H        -0.994714         3.004918         0.840805
