19
Iteration:  1622
 O         0.390120         0.731682         0.058870
 C        -0.853881         0.984187         0.686305
 C        -1.194673         1.001335         2.128078
 C        -2.604822         1.345180         1.236775
 O        -3.776126         1.687924         1.938384
 C        -2.181718         0.167134         0.228308
 C        -2.426405         0.665952        -1.217548
 C        -2.176771         2.173266        -1.040042
 C        -1.770980         2.251392         0.425282
 H         1.145969         0.571178         0.708672
 H        -1.125258        -0.046550         2.629521
 H        -0.846678         1.756809         2.888276
 H        -4.014396         0.882572         2.612398
 H        -2.243920        -0.802232         0.548018
 H        -1.644850         0.171247        -1.837941
 H        -3.382936         0.409382        -1.633754
 H        -1.446089         2.519858        -1.715033
 H        -3.143073         2.676275        -1.116388
 H        -1.618138         3.268732         0.895589
