19
Iteration:   908
 O         0.620914         0.844735         0.128747
 C        -0.781284         0.876608         0.671662
 C        -1.252102         0.880190         2.108721
 C        -2.516733         1.246357         1.332563
 O        -3.875157         1.619401         1.761833
 C        -2.179554         0.220993         0.224005
 C        -2.708534         0.752014        -1.131690
 C        -2.261651         2.322017        -1.011391
 C        -1.614325         2.210879         0.401457
 H         0.931044        -0.012087         0.239662
 H        -1.321864        -0.150736         2.668417
 H        -0.841917         1.722118         2.766848
 H        -4.056512         1.032647         2.558659
 H        -2.222168        -0.814366         0.464181
 H        -2.190175         0.279822        -1.966518
 H        -3.736545         0.644044        -1.169924
 H        -1.439965         2.680378        -1.665051
 H        -3.073322         3.040106        -0.879857
 H        -1.209073         3.224508         0.890620
