19
Iteration:  1730
 O         0.510186         0.808812         0.118904
 C        -0.790543         1.002468         0.649484
 C        -1.310787         0.961792         2.111326
 C        -2.499252         1.444387         1.405591
 O        -3.783753         1.578656         1.740861
 C        -2.146352         0.218822         0.280876
 C        -2.618211         0.656998        -1.077218
 C        -2.230811         2.154323        -1.017512
 C        -1.673568         2.304297         0.402285
 H         0.606481        -0.208602        -0.026602
 H        -1.416855        -0.036755         2.400132
 H        -0.776466         1.511818         2.888036
 H        -4.186558         0.640020         2.091967
 H        -2.194105        -0.857148         0.649629
 H        -2.060248         0.044997        -1.824532
 H        -3.648533         0.455338        -1.334186
 H        -1.426129         2.339445        -1.678842
 H        -3.003319         2.812535        -1.371474
 H        -1.280179         3.373031         0.701382
