19
Iteration:   143
 O         0.538055         0.672305         0.165138
 C        -0.821513         0.939215         0.667267
 C        -1.243608         0.852085         2.196683
 C        -2.455503         1.382372         1.436867
 O        -3.874200         1.446386         1.703139
 C        -2.197620         0.305321         0.267667
 C        -2.562711         0.764450        -1.226491
 C        -2.359280         2.317594        -1.047973
 C        -1.573144         2.219011         0.416791
 H         0.840697         1.469312        -0.095116
 H        -1.227285        -0.129389         2.666085
 H        -0.850997         1.674521         2.851780
 H        -4.049019         1.821083         2.515317
 H        -2.556194        -0.611601         0.599895
 H        -1.754724         0.492588        -1.926079
 H        -3.574591         0.478270        -1.483342
 H        -1.711586         2.582300        -1.767086
 H        -3.174543         2.997705        -0.979960
 H        -1.003392         3.125868         0.503433
