19
Iteration:  3191
 O         0.485680         0.681418         0.257117
 C        -0.855571         0.854385         0.659625
 C        -1.272862         1.035762         2.227594
 C        -2.544930         1.393256         1.365025
 O        -3.798520         1.386122         1.879198
 C        -2.186603         0.253830         0.160747
 C        -2.518968         0.731184        -1.265762
 C        -2.269197         2.320704        -1.021317
 C        -1.597405         2.290874         0.320566
 H         0.795842         0.698023        -0.672418
 H        -1.418496         0.137179         2.806858
 H        -0.780671         1.789269         2.885560
 H        -4.186545         2.268934         1.773414
 H        -2.314857        -0.824160         0.340202
 H        -1.863677         0.082624        -1.854995
 H        -3.568005         0.489802        -1.561500
 H        -1.522574         2.868604        -1.617278
 H        -3.203464         2.887461        -1.086490
 H        -0.985932         3.123913         0.766729
