19
Iteration:  1498
 O         0.461226         0.666217         0.196031
 C        -0.803129         1.030980         0.675940
 C        -1.239440         0.891965         2.197963
 C        -2.463444         1.320933         1.345164
 O        -3.714741         1.631398         1.710803
 C        -2.123249         0.247713         0.250078
 C        -2.626210         0.706960        -1.120603
 C        -2.314417         2.172550        -1.055404
 C        -1.708227         2.281953         0.386513
 H         0.930659         1.556376         0.126895
 H        -1.287218        -0.109643         2.454371
 H        -0.723534         1.644134         2.877951
 H        -4.174850         0.838042         2.131077
 H        -2.302189        -0.817876         0.559769
 H        -2.163147         0.211458        -1.985055
 H        -3.671785         0.549767        -1.391473
 H        -1.653241         2.610075        -1.794019
 H        -3.220538         2.743002        -1.070165
 H        -1.336000         3.348473         0.734880
