19
Iteration:  3814charge 0 multiplicity 1
 O         0.447071         0.874148        -0.011217
 C        -0.808421         0.858632         0.695026
 C        -1.321281         0.901185         2.210361
 C        -2.541453         1.323744         1.306175
 O        -3.914095         1.537667         1.776120
 C        -2.078459         0.197501         0.300853
 C        -2.563199         0.710428        -1.154928
 C        -2.124007         2.255284        -1.000604
 C        -1.621705         2.251960         0.489121
 H         0.628889        -0.074702        -0.120445
 H        -1.428000        -0.049661         2.881400
 H        -0.875782         1.678896         2.849158
 H        -3.995804         2.411291         1.514190
 H        -2.040267        -0.885252         0.546934
 H        -1.939133         0.219576        -1.917456
 H        -3.648041         0.688615        -1.123749
 H        -1.336515         2.600840        -1.670393
 H        -3.037399         2.953605        -1.158410
 H        -1.157336         3.056761         1.113636
