19
Iteration:  1074charge 0 multiplicity 1
 O         0.442442         0.809212         0.140637
 C        -0.854187         0.958092         0.691272
 C        -1.270649         0.835514         2.088718
 C        -2.399105         1.336418         1.298148
 O        -3.761118         1.617906         1.683015
 C        -2.179839         0.203914         0.237690
 C        -2.674272         0.718393        -1.089856
 C        -2.238343         2.296389        -0.955164
 C        -1.620314         2.305971         0.433294
 H         0.758442        -0.058282         0.635743
 H        -1.250017        -0.256162         2.473558
 H        -0.737478         1.351641         2.867133
 H        -4.036029         0.709758         2.091925
 H        -2.223290        -0.841945         0.571752
 H        -2.157709         0.257126        -1.916091
 H        -3.714479         0.548325        -1.184416
 H        -1.409040         2.498854        -1.677998
 H        -3.108846         2.971572        -1.013583
 H        -1.182473         3.317744         0.825213
