19
Iteration:   916charge 0 multiplicity 1
 O         0.634735         0.855072         0.069474
 C        -0.757044         0.941566         0.625670
 C        -1.349077         0.805314         2.085511
 C        -2.539592         1.316554         1.299671
 O        -3.907226         1.615255         1.771960
 C        -2.189361         0.256521         0.286680
 C        -2.651201         0.703827        -1.111419
 C        -2.233309         2.286537        -0.931716
 C        -1.533261         2.216732         0.419242
 H         0.734911        -0.050075         0.166769
 H        -1.190655        -0.101660         2.482369
 H        -0.929354         1.543336         2.800913
 H        -4.022609         1.044725         2.663932
 H        -2.300003        -0.736950         0.702622
 H        -2.122392         0.185968        -1.911298
 H        -3.725914         0.621530        -1.360527
 H        -1.519832         2.705438        -1.715930
 H        -3.196266         2.961105        -0.937156
 H        -1.329627         3.160332         0.862277
