19
Iteration:   159
 O         0.413669         0.700981         0.174606
 C        -0.842579         0.944658         0.662664
 C        -1.230441         0.898237         2.109952
 C        -2.502810         1.310148         1.256145
 O        -3.806874         1.481284         1.755837
 C        -2.195114         0.259083         0.231226
 C        -2.567243         0.753527        -1.123744
 C        -2.208444         2.260165        -0.975582
 C        -1.630913         2.309024         0.408221
 H         1.011512         1.462969         0.375610
 H        -1.295936        -0.139553         2.489936
 H        -0.736325         1.607805         2.763699
 H        -3.711639         1.837810         2.595626
 H        -2.299630        -0.859127         0.453687
 H        -1.951438         0.200162        -1.841293
 H        -3.597917         0.552991        -1.484854
 H        -1.468891         2.705929        -1.762400
 H        -3.195951         2.812559        -1.011955
 H        -1.336675         3.248656         1.011344
