19
Iteration:  2425
 O         0.386912         0.759499         0.136365
 C        -0.812371         1.017346         0.667040
 C        -1.320415         0.950315         2.132318
 C        -2.523440         1.357106         1.290623
 O        -3.735577         1.504981         1.778531
 C        -2.150241         0.257468         0.299825
 C        -2.593912         0.733337        -1.090293
 C        -2.081003         2.190290        -1.043466
 C        -1.703813         2.335849         0.384010
 H         0.724128        -0.237446         0.265340
 H        -1.250512        -0.110096         2.634518
 H        -0.850976         1.799653         2.732469
 H        -3.946377         0.582474         2.204154
 H        -2.255269        -0.791065         0.580115
 H        -2.292483         0.085643        -1.973174
 H        -3.650162         0.698329        -1.178123
 H        -1.317998         2.559413        -1.781230
 H        -2.888984         2.920233        -1.199223
 H        -1.470095         3.344569         0.703222
