19
Iteration:  2100
 O         0.343970         0.861390         0.089164
 C        -0.862691         0.972116         0.716188
 C        -1.246843         0.939681         2.197033
 C        -2.554206         1.291314         1.312843
 O        -3.751890         1.654629         1.853192
 C        -2.159191         0.222001         0.246224
 C        -2.471249         0.660373        -1.275919
 C        -2.138713         2.141669        -1.028179
 C        -1.678811         2.268554         0.462226
 H         0.589507        -0.033869         0.160801
 H        -1.239864         0.001513         2.714200
 H        -0.726589         1.765153         2.673518
 H        -4.221093         1.088364         2.417402
 H        -2.218920        -0.866659         0.474625
 H        -1.882690         0.173395        -2.056772
 H        -3.538328         0.346727        -1.494269
 H        -1.506706         2.623334        -1.828640
 H        -3.051594         2.658827        -1.213634
 H        -1.337607         3.225147         0.819827
