19
Iteration:  4414charge 0 multiplicity 1
 O         0.518490         0.723795         0.373986
 C        -0.789828         1.001562         0.629936
 C        -1.245700         1.228356         2.138486
 C        -2.483929         1.363830         1.311111
 O        -3.844282         1.491442         1.913397
 C        -2.092539         0.228448         0.314837
 C        -2.605152         0.553942        -1.088779
 C        -2.263059         2.078532        -1.198651
 C        -1.700044         2.281738         0.215803
 H         0.606481         0.673106        -0.713299
 H        -1.291008         0.320751         2.832253
 H        -0.692682         2.132759         2.555169
 H        -4.345408         2.110372         1.297426
 H        -2.152704        -0.732915         0.860868
 H        -2.083739         0.101593        -1.916759
 H        -3.630043         0.289680        -1.482676
 H        -1.523140         2.165530        -1.882051
 H        -3.242763         2.596601        -1.341801
 H        -1.265710         3.230677         0.647460
