19
Iteration:  2078charge 0 multiplicity 1
 O         0.485506         0.916788         0.088046
 C        -0.841711         0.926350         0.626936
 C        -1.250733         0.985629         2.173181
 C        -2.589416         1.265855         1.319673
 O        -3.795550         1.704443         1.902720
 C        -2.206561         0.148988         0.243457
 C        -2.550229         0.691322        -1.147090
 C        -2.098781         2.214009        -1.053108
 C        -1.745937         2.137574         0.442086
 H         0.783566        -0.061733         0.172560
 H        -1.135810         0.078856         2.744353
 H        -0.923208         1.900320         2.700347
 H        -4.219048         0.775192         2.088294
 H        -2.294209        -0.965258         0.316791
 H        -2.003606         0.212692        -1.957957
 H        -3.611735         0.474593        -1.524397
 H        -1.166060         2.411428        -1.684904
 H        -2.705593         2.940112        -1.528466
 H        -1.366232         3.046864         0.873258
