19
Iteration:  2212
 O         0.436992         0.916697         0.154959
 C        -0.865983         0.960439         0.570532
 C        -1.265434         0.851018         2.158671
 C        -2.507696         1.266941         1.369595
 O        -3.768735         1.652544         1.781044
 C        -2.142950         0.244398         0.243509
 C        -2.645743         0.706109        -1.009300
 C        -2.130792         2.171605        -1.093010
 C        -1.626394         2.247282         0.390386
 H         0.837175         0.045566         0.572141
 H        -1.435924        -0.168631         2.478402
 H        -0.897855         1.657106         2.852765
 H        -4.214747         0.765816         1.800963
 H        -2.158571        -0.861352         0.366556
 H        -2.234461         0.149394        -1.851935
 H        -3.746309         0.625739        -1.103342
 H        -1.319334         2.399756        -1.747586
 H        -2.949278         2.861887        -1.433610
 H        -1.350471         3.232824         0.833940
