19
Iteration:  2602charge 0 multiplicity 1
 O         0.483576         0.802401         0.227454
 C        -0.818978         1.008823         0.703094
 C        -1.133522         0.808288         2.257165
 C        -2.571447         1.261358         1.298095
 O        -3.789674         1.740289         1.737265
 C        -2.051809         0.143956         0.208619
 C        -2.634903         0.685248        -1.117110
 C        -2.219218         2.172182        -1.098944
 C        -1.733121         2.350748         0.392045
 H         0.182469         0.745532        -0.758146
 H        -1.448757        -0.216561         2.625636
 H        -0.601121         1.531004         2.939712
 H        -4.397476         0.989398         2.250776
 H        -2.016799        -0.912289         0.417534
 H        -2.247144         0.036470        -2.080605
 H        -3.695628         0.576539        -0.952081
 H        -1.307988         2.478552        -1.662909
 H        -3.109722         2.802327        -1.326826
 H        -1.496757         3.303426         0.709456
