19
Iteration:  1729charge 0 multiplicity 1
 O         0.519928         0.806532         0.121067
 C        -0.794360         1.007135         0.646533
 C        -1.319724         0.955652         2.108725
 C        -2.493679         1.446709         1.401565
 O        -3.774584         1.578922         1.731976
 C        -2.151887         0.221306         0.270210
 C        -2.624552         0.659001        -1.069604
 C        -2.231043         2.141114        -1.004015
 C        -1.679998         2.314931         0.404965
 H         0.635743        -0.217349        -0.032020
 H        -1.426974        -0.014051         2.397412
 H        -0.759168         1.537210         2.884175
 H        -4.176030         0.622732         2.063967
 H        -2.198348        -0.876919         0.680909
 H        -2.069542         0.035426        -1.812490
 H        -3.674161         0.454699        -1.304673
 H        -1.411826         2.358667        -1.700406
 H        -3.012295         2.795336        -1.359636
 H        -1.287054         3.378009         0.742690
