19
Iteration:  3338
 O         0.466532         0.615950         0.281385
 C        -0.771146         0.945360         0.655293
 C        -1.290226         1.002472         2.134669
 C        -2.544804         1.295164         1.284629
 O        -3.769579         1.464436         1.956505
 C        -2.143524         0.192505         0.224337
 C        -2.529632         0.707001        -1.249059
 C        -2.242730         2.321502        -1.068235
 C        -1.686406         2.331155         0.365355
 H         0.803151         1.378316        -0.290585
 H        -1.307168         0.043733         2.740056
 H        -0.771528         1.759756         2.791710
 H        -4.445811         2.021192         1.400946
 H        -2.470485        -0.808626         0.607754
 H        -1.784967         0.384287        -2.006560
 H        -3.570792         0.550662        -1.568915
 H        -1.648259         2.806630        -1.916408
 H        -3.160778         2.930212        -1.163679
 H        -1.288882         3.262457         0.758949
