19
Iteration:   783
 O         0.494025         0.761824         0.093163
 C        -0.798260         0.931437         0.651444
 C        -1.289577         0.845953         2.117934
 C        -2.558743         1.344562         1.355816
 O        -3.853205         1.659587         1.869123
 C        -2.103232         0.237518         0.188279
 C        -2.470412         0.722394        -1.183792
 C        -2.257302         2.222768        -0.934633
 C        -1.646827         2.303522         0.451495
 H         0.387825         0.014232        -0.427408
 H        -1.323249        -0.131698         2.562864
 H        -0.943624         1.576926         2.855725
 H        -4.179675         0.878724         2.414993
 H        -2.153104        -0.847048         0.410958
 H        -1.891855         0.387230        -2.034671
 H        -3.496532         0.478431        -1.518768
 H        -1.671723         2.671485        -1.770026
 H        -3.217046         2.878655        -1.033077
 H        -1.267844         3.236839         0.697941
