19
Iteration:  3905charge 0 multiplicity 1
 O         0.409524         0.754310         0.278027
 C        -0.846842         0.995187         0.659683
 C        -1.169148         0.881627         2.115370
 C        -2.515893         1.301033         1.267521
 O        -3.748797         1.610092         1.792232
 C        -2.196725         0.240434         0.226129
 C        -2.585858         0.771206        -1.185190
 C        -2.280948         2.234145        -1.024322
 C        -1.611688         2.247489         0.340095
 H         1.007380         0.229459         0.941412
 H        -1.120212        -0.124794         2.534155
 H        -0.870804         1.614612         2.911296
 H        -4.287995         0.811154         1.997457
 H        -2.386517        -0.805150         0.484948
 H        -1.854411         0.309239        -1.890282
 H        -3.596039         0.679687        -1.508854
 H        -1.514755         2.607835        -1.757446
 H        -3.196149         2.806328        -1.023393
 H        -1.267266         3.170006         0.701675
