19
Iteration:  4068charge 0 multiplicity 1
 O         0.483339         0.724864         0.218807
 C        -0.811022         0.965756         0.645263
 C        -1.127362         0.920980         2.196919
 C        -2.513754         1.353909         1.309637
 O        -3.844437         1.658505         1.653598
 C        -2.087338         0.208532         0.307732
 C        -2.580994         0.618086        -1.081344
 C        -2.274628         2.228551        -1.006315
 C        -1.725437         2.319340         0.473915
 H         0.499094         0.672706        -0.780167
 H        -1.341313        -0.078220         2.600919
 H        -0.723689         1.575655         3.049713
 H        -4.455454         1.141369         1.020077
 H        -2.173533        -0.862479         0.420110
 H        -1.871166         0.182268        -1.900594
 H        -3.645611         0.356532        -1.273180
 H        -1.419609         2.539435        -1.674430
 H        -3.181310         2.847545        -1.067726
 H        -1.459274         3.289416         0.816058
