19
Iteration:  3055
 O         0.514882         0.686803         0.284809
 C        -0.773294         1.058865         0.641493
 C        -1.253561         0.965774         2.175689
 C        -2.564267         1.293967         1.290011
 O        -3.766221         1.520045         1.859940
 C        -2.192121         0.271605         0.212695
 C        -2.589536         0.754187        -1.149076
 C        -2.245306         2.210064        -1.065283
 C        -1.648914         2.267567         0.371511
 H         0.670101         0.485259        -0.710442
 H        -1.388834         0.035147         2.764651
 H        -0.914231         1.776433         2.822338
 H        -4.372604         0.842174         1.861931
 H        -2.473338        -0.789683         0.301923
 H        -1.863280         0.352929        -1.899415
 H        -3.594165         0.572847        -1.541490
 H        -1.524389         2.566181        -1.838980
 H        -3.133679         2.951261        -1.271149
 H        -1.174425         3.208518         0.792667
