19
Iteration:     1charge 0 multiplicity 1
 O         0.409691         0.655771         0.110708
 C        -0.820075         0.963114         0.661895
 C        -1.273718         0.876387         2.143829
 C        -2.521167         1.282598         1.314248
 O        -3.826839         1.451491         1.735301
 C        -2.130730         0.262166         0.209822
 C        -2.550394         0.811468        -1.153551
 C        -2.193950         2.315505        -0.960769
 C        -1.653489         2.276885         0.467473
 H         1.066395         1.261092         0.471237
 H        -1.286719        -0.118361         2.597100
 H        -0.869189         1.628065         2.830593
 H        -3.854412         2.183838         2.360249
 H        -2.250272        -0.802295         0.419447
 H        -1.989146         0.347665        -1.969597
 H        -3.615263         0.653114        -1.345973
 H        -1.442086         2.663619        -1.675628
 H        -3.066990         2.968868        -1.052500
 H        -1.300573         3.200239         0.935510
