19
Iteration:   653charge 0 multiplicity 1
 O         0.351432         0.744001        -0.026040
 C        -0.839849         1.009461         0.679485
 C        -1.286459         0.907987         2.239561
 C        -2.483658         1.236377         1.353835
 O        -3.759538         1.574197         1.788900
 C        -2.108092         0.172940         0.240247
 C        -2.522092         0.711100        -1.244386
 C        -2.162953         2.253690        -0.997745
 C        -1.769782         2.278165         0.542485
 H         1.005930         0.395876         0.709924
 H        -1.099916        -0.109676         2.584233
 H        -0.901404         1.828293         2.812278
 H        -3.703034         2.341619         2.295007
 H        -2.245166        -0.897449         0.319760
 H        -1.958013         0.283893        -2.061962
 H        -3.575956         0.692155        -1.478518
 H        -1.336369         2.627804        -1.540439
 H        -3.076818         2.793563        -1.246852
 H        -1.511161         3.284000         0.941399
