19
Iteration:  3088
 O         0.471748         0.643307         0.324408
 C        -0.776207         1.024085         0.657557
 C        -1.188665         0.943604         2.141757
 C        -2.536484         1.316490         1.281600
 O        -3.803973         1.567142         1.751291
 C        -2.071691         0.251937         0.146374
 C        -2.624431         0.744004        -1.138887
 C        -2.205109         2.237155        -1.069227
 C        -1.792899         2.300524         0.430919
 H         0.774816         0.951203        -0.536117
 H        -1.284551        -0.027903         2.711353
 H        -0.693615         1.692562         2.764614
 H        -3.907651         0.909899         2.574025
 H        -2.222851        -0.822354         0.363980
 H        -2.408719         0.212218        -2.104731
 H        -3.738068         0.648580        -1.057398
 H        -1.329398         2.454557        -1.731215
 H        -3.231719         2.809039        -1.262850
 H        -1.295330         3.166493         0.977531
