19
Iteration:   738
 O         0.586783         0.623887         0.294843
 C        -0.761730         0.965976         0.570824
 C        -1.243876         0.960437         2.098927
 C        -2.529957         1.269202         1.326194
 O        -3.881978         1.513363         1.812303
 C        -2.097869         0.263344         0.172457
 C        -2.660849         0.824965        -1.188913
 C        -2.234643         2.264577        -0.970045
 C        -1.726770         2.240222         0.399404
 H         0.765043         0.927738        -0.548777
 H        -1.204592         0.027631         2.656954
 H        -0.628444         1.681011         2.604517
 H        -3.731800         1.950013         2.753213
 H        -2.177090        -0.891461         0.302281
 H        -2.421290         0.152456        -2.029107
 H        -3.796026         0.716599        -1.169760
 H        -1.531350         2.881568        -1.616923
 H        -3.177451         2.975452        -1.073773
 H        -1.304412         3.081666         0.812888
