19
Iteration:  1561
 O         0.495105         0.630190         0.099039
 C        -0.803126         1.039763         0.661397
 C        -1.283561         0.913803         2.148398
 C        -2.490111         1.318490         1.345796
 O        -3.776659         1.615600         1.687018
 C        -2.078489         0.297403         0.287046
 C        -2.641150         0.665973        -1.044842
 C        -2.282060         2.211458        -1.035077
 C        -1.699639         2.333250         0.427667
 H         1.101866         1.488698         0.092659
 H        -1.244477        -0.193636         2.401672
 H        -0.910289         1.482253         2.994886
 H        -4.161871         0.818634         2.167145
 H        -2.228905        -0.808100         0.711466
 H        -2.000621         0.065081        -1.712284
 H        -3.738311         0.419084        -1.155737
 H        -1.529839         2.456189        -1.860303
 H        -3.134709         2.890130        -1.315490
 H        -1.309373         3.263723         0.917846
