19
Iteration:  2771
 O         0.518778         0.763605         0.281249
 C        -0.835075         0.964773         0.705116
 C        -1.194499         0.906505         2.101438
 C        -2.557202         1.313144         1.284284
 O        -3.782415         1.682650         1.730255
 C        -2.077785         0.198679         0.215201
 C        -2.680225         0.687389        -1.123584
 C        -2.213948         2.160456        -1.018550
 C        -1.716243         2.269974         0.391185
 H         0.665759         1.293770        -0.577247
 H        -1.051826        -0.103683         2.578417
 H        -0.890600         1.697776         2.805760
 H        -4.075551         1.003392         2.350320
 H        -2.047598        -0.854765         0.504829
 H        -2.372917         0.007261        -1.877712
 H        -3.798579         0.453914        -1.155086
 H        -1.407002         2.432296        -1.684691
 H        -3.111819         2.792769        -1.226620
 H        -1.388429         3.304489         0.749066
