19
Iteration:  2664
 O         0.478911         0.590939         0.285832
 C        -0.815215         1.013747         0.657164
 C        -1.228605         0.999625         2.126834
 C        -2.528803         1.328762         1.339533
 O        -3.780074         1.607863         1.794123
 C        -2.050303         0.288655         0.234008
 C        -2.502505         0.671759        -1.224758
 C        -2.388731         2.258056        -0.995160
 C        -1.724895         2.303943         0.357026
 H         0.634548         0.280807        -0.677100
 H        -1.301681         0.102809         2.709376
 H        -0.758410         1.750164         2.731553
 H        -4.150724         0.846454         2.374628
 H        -2.093584        -0.776702         0.577818
 H        -1.766480         0.395363        -1.942451
 H        -3.517343         0.295821        -1.402031
 H        -1.712268         2.694922        -1.792195
 H        -3.360967         2.705251        -1.146735
 H        -1.284020         3.327236         0.667873
