19
Iteration:  3876
 O         0.618737         0.643814         0.211381
 C        -0.823332         0.885723         0.642392
 C        -1.330242         1.015306         2.115215
 C        -2.574387         1.315478         1.213499
 O        -3.826394         1.576173         1.878114
 C        -2.045991         0.229384         0.168433
 C        -2.575781         0.800636        -1.233410
 C        -2.272767         2.256360        -0.998899
 C        -1.735907         2.265063         0.412270
 H         1.085163         0.106331         0.841706
 H        -1.488535         0.163782         2.793011
 H        -1.053098         1.910627         2.674699
 H        -3.677610         1.376521         2.764845
 H        -2.138498        -0.885279         0.388682
 H        -2.252894         0.362225        -2.161597
 H        -3.697868         0.739795        -1.501170
 H        -1.475509         2.640053        -1.621255
 H        -3.240906         2.753660        -1.053024
 H        -1.433238         3.269199         0.910456
