19
Iteration:   711
 O         0.444009         0.621637         0.197120
 C        -0.770897         0.994833         0.682496
 C        -1.289065         0.912837         2.146379
 C        -2.468529         1.255738         1.270860
 O        -3.761103         1.402206         1.754758
 C        -2.115230         0.252926         0.219581
 C        -2.729561         0.832177        -1.080512
 C        -2.250141         2.289398        -0.986608
 C        -1.629833         2.329508         0.374340
 H         0.828519         1.423075        -0.037393
 H        -1.193506        -0.020292         2.714625
 H        -0.774814         1.646684         2.806226
 H        -3.921122         2.422677         1.922810
 H        -2.257581        -0.781984         0.370589
 H        -2.268274         0.272899        -1.921129
 H        -3.783199         0.595280        -1.192756
 H        -1.456681         2.481476        -1.695570
 H        -2.923367         3.015249        -1.247303
 H        -1.138834         3.310037         0.842062
