19
Iteration:  3711charge 0 multiplicity 1
 O         0.447176         0.617491         0.183762
 C        -0.824172         0.979134         0.678252
 C        -1.138214         0.985373         2.054692
 C        -2.629874         1.239998         1.341190
 O        -3.833598         1.588086         1.846935
 C        -2.035392         0.202158         0.223074
 C        -2.545609         0.798221        -1.210246
 C        -2.233434         2.323679        -1.004231
 C        -1.758472         2.297797         0.418618
 H         1.025522         0.162599         0.909203
 H        -1.021444         0.095430         2.621936
 H        -0.692201         1.741870         2.765098
 H        -4.601336         1.155436         1.274149
 H        -2.145263        -0.865127         0.458363
 H        -1.948386         0.397561        -2.010867
 H        -3.592932         0.535285        -1.527591
 H        -1.354113         2.595370        -1.641318
 H        -3.053339         3.008503        -1.133302
 H        -1.454575         3.142697         1.087072
