19
Iteration:  1875charge 0 multiplicity 1
 O         0.531940         0.780826         0.164583
 C        -0.824404         0.995755         0.650554
 C        -1.247767         0.939528         2.159744
 C        -2.456018         1.337336         1.290909
 O        -3.785789         1.545665         1.635494
 C        -2.114364         0.284158         0.331751
 C        -2.688139         0.714372        -0.995967
 C        -2.273143         2.200882        -1.034362
 C        -1.659966         2.298294         0.381354
 H         0.750628        -0.105433         0.268742
 H        -1.316612        -0.042643         2.494582
 H        -0.814834         1.562497         2.834910
 H        -4.128517         0.727124         1.969381
 H        -2.374491        -0.712172         0.614923
 H        -2.344938         0.139666        -1.853902
 H        -3.752324         0.613775        -1.082367
 H        -1.516447         2.425437        -1.693617
 H        -3.069283         2.909545        -1.230207
 H        -1.200284         3.200231         0.773133
