19
Iteration:  3197charge 0 multiplicity 1
 O         0.482349         0.695087         0.266425
 C        -0.857510         0.862070         0.658731
 C        -1.313153         0.999106         2.214580
 C        -2.515729         1.392181         1.371759
 O        -3.769449         1.385501         1.868332
 C        -2.217141         0.233712         0.188542
 C        -2.519908         0.757598        -1.233153
 C        -2.213477         2.321663        -0.995988
 C        -1.609196         2.310806         0.299803
 H         0.898049         0.483648        -0.678570
 H        -1.233458         0.028162         2.784049
 H        -0.877528         1.911655         2.648698
 H        -4.316521         2.111791         1.702218
 H        -2.416550        -0.844615         0.342950
 H        -1.804352         0.180778        -1.864075
 H        -3.584185         0.610738        -1.438211
 H        -1.712763         2.839923        -1.868731
 H        -3.258291         2.804384        -1.180855
 H        -1.144462         3.222117         0.668651
