19
Iteration:  2174charge 0 multiplicity 1
 O         0.602801         0.769773         0.204559
 C        -0.798314         0.961517         0.574541
 C        -1.326297         0.981268         2.156943
 C        -2.458633         1.276726         1.287223
 O        -3.776546         1.614908         1.675145
 C        -2.151543         0.210368         0.232129
 C        -2.638589         0.777010        -1.078636
 C        -2.335503         2.228246        -0.957668
 C        -1.680115         2.224690         0.415289
 H         0.808483        -0.234520         0.479220
 H        -1.196042         0.075155         2.787735
 H        -0.840463         1.846697         2.608639
 H        -4.203382         1.104086         2.454386
 H        -2.039531        -0.872525         0.343621
 H        -2.083281         0.109085        -1.794932
 H        -3.753986         0.528261        -1.291826
 H        -1.717359         2.590177        -1.870657
 H        -3.220007         2.887769        -1.015721
 H        -1.301248         3.076892         0.968164
