19
Iteration:  3077
 O         0.486016         0.601049         0.332560
 C        -0.838660         1.041286         0.647071
 C        -1.224596         0.955091         2.065260
 C        -2.556406         1.324091         1.270778
 O        -3.825385         1.571413         1.840511
 C        -1.982240         0.231264         0.202136
 C        -2.613023         0.702152        -1.164841
 C        -2.209860         2.266838        -1.115104
 C        -1.722689         2.322672         0.449472
 H         0.687145         0.821795        -0.543762
 H        -1.175021        -0.120649         2.407969
 H        -0.831635         1.670637         2.781169
 H        -4.192848         0.736858         2.386093
 H        -2.042919        -0.818658         0.549458
 H        -2.409625         0.115072        -2.100798
 H        -3.701282         0.744099        -0.975594
 H        -1.458202         2.756951        -1.790339
 H        -3.101726         3.032433        -1.355794
 H        -1.569669         3.353725         0.931025
