19
Iteration:  1433charge 0 multiplicity 1
 O         0.257808         0.735309         0.054476
 C        -0.871270         0.946038         0.681535
 C        -1.188867         1.038453         2.118178
 C        -2.571476         1.306342         1.307835
 O        -3.769521         1.621192         1.824846
 C        -2.145492         0.159579         0.246571
 C        -2.437807         0.693789        -1.173474
 C        -2.165592         2.193117        -0.955992
 C        -1.701750         2.285286         0.407891
 H         0.999061         0.784432         0.594249
 H        -1.058934         0.092451         2.649919
 H        -0.680249         2.030935         2.647537
 H        -4.041561         0.845966         2.519039
 H        -2.158969        -0.838761         0.568950
 H        -1.707415         0.257956        -1.931268
 H        -3.366177         0.312580        -1.569130
 H        -1.449668         2.554871        -1.684923
 H        -3.085174         2.731876        -1.081842
 H        -1.288197         3.229617         0.929721
