19
Iteration:  2949
 O         0.593129         0.728856         0.325654
 C        -0.800639         0.962158         0.651896
 C        -1.225497         1.108997         2.144118
 C        -2.480183         1.280568         1.296010
 O        -3.800712         1.466628         1.748086
 C        -2.304631         0.222858         0.251677
 C        -2.672085         0.730053        -1.146442
 C        -2.218462         2.172759        -1.073066
 C        -1.629519         2.277440         0.370572
 H         0.901959         0.818166        -0.649870
 H        -1.206272         0.081566         2.520272
 H        -0.759988         1.940067         2.727121
 H        -3.741318         1.468488         2.647566
 H        -2.657918        -0.819138         0.365091
 H        -2.231672         0.258429        -2.004126
 H        -3.775237         0.873027        -1.304811
 H        -1.630121         2.471970        -1.962973
 H        -3.140498         2.675045        -1.123637
 H        -1.459504         3.214548         0.983354
