19
Iteration:  4444charge 0 multiplicity 1
 O         0.458804         0.802959         0.236014
 C        -0.813976         1.047556         0.656404
 C        -1.277068         1.163602         2.155216
 C        -2.528373         1.271544         1.293212
 O        -3.805923         1.625952         1.846006
 C        -2.088437         0.151140         0.352982
 C        -2.511514         0.478327        -1.077000
 C        -2.174691         2.064456        -1.151929
 C        -1.772126         2.212277         0.291994
 H         0.389589         1.085264        -0.674019
 H        -1.220003         0.316622         2.888362
 H        -0.970744         2.001795         2.739992
 H        -3.846885         2.529438         1.556356
 H        -2.207840        -0.859083         0.745243
 H        -2.111252        -0.133434        -1.913434
 H        -3.592790         0.576214        -1.199551
 H        -1.288411         2.388954        -1.863650
 H        -3.139282         2.573883        -1.349879
 H        -1.462194         3.157723         0.825957
