19
Iteration:  2310
 O         0.467462         0.755203         0.231672
 C        -0.816440         0.927280         0.593498
 C        -1.244138         1.023971         2.136255
 C        -2.494294         1.283255         1.352824
 O        -3.789888         1.680378         1.725621
 C        -2.064389         0.158711         0.212423
 C        -2.523517         0.746438        -1.157553
 C        -2.401091         2.258635        -0.932537
 C        -1.683445         2.193580         0.379999
 H         0.441825        -0.297640         0.098260
 H        -1.338301         0.073776         2.627700
 H        -0.774712         1.801745         2.766564
 H        -3.977198         1.042195         2.441191
 H        -2.001311        -0.959551         0.307384
 H        -1.719118         0.484676        -1.885608
 H        -3.498328         0.266959        -1.598597
 H        -1.791886         2.603924        -1.764410
 H        -3.229380         2.981581        -0.860151
 H        -1.224943         3.115230         0.839896
