19
Iteration:  4449
 O         0.467817         0.819337         0.216914
 C        -0.840982         1.051757         0.659177
 C        -1.254196         1.088341         2.160693
 C        -2.554587         1.310560         1.326370
 O        -3.835288         1.641791         1.829468
 C        -2.052425         0.124482         0.392392
 C        -2.534072         0.504977        -1.081761
 C        -2.167648         2.026122        -1.174424
 C        -1.746678         2.227634         0.316292
 H         0.475545         1.101122        -0.787941
 H        -1.226267         0.284287         2.888274
 H        -0.945870         2.058135         2.695798
 H        -3.903651         2.610307         1.607636
 H        -2.107057        -0.927140         0.734615
 H        -1.936018        -0.001157        -1.847209
 H        -3.630191         0.472437        -1.264965
 H        -1.522646         2.311281        -1.947922
 H        -3.008776         2.706582        -1.493944
 H        -1.507668         3.165839         0.808930
