19
Iteration:   334
 O         0.402745         0.696366         0.259428
 C        -0.886262         0.934912         0.653480
 C        -1.266436         0.943006         2.137868
 C        -2.548263         1.276666         1.308188
 O        -3.749867         1.502026         1.884432
 C        -2.057992         0.276251         0.174447
 C        -2.526783         0.706989        -1.232541
 C        -2.180401         2.257793        -1.051654
 C        -1.743617         2.243123         0.425304
 H         0.632638         1.124943        -0.663845
 H        -1.064178        -0.071507         2.626467
 H        -0.945387         1.825526         2.722767
 H        -3.637132         2.496316         2.294997
 H        -2.248483        -0.844896         0.442384
 H        -2.076750         0.199267        -2.122259
 H        -3.653621         0.630708        -1.115677
 H        -1.426724         2.648304        -1.736368
 H        -3.018608         2.928631        -1.207358
 H        -1.492358         3.382077         0.793214
