19
Iteration:  1057charge 0 multiplicity 1
 O         0.476623         0.842777         0.130244
 C        -0.825118         0.892603         0.643304
 C        -1.223695         0.903092         2.189913
 C        -2.503324         1.243757         1.318731
 O        -3.730638         1.630311         1.658770
 C        -2.131886         0.219310         0.190287
 C        -2.733898         0.834930        -1.102272
 C        -2.224854         2.235464        -0.942801
 C        -1.575450         2.162597         0.447373
 H         0.977895         0.250227         0.772839
 H        -1.154392         0.068473         2.916265
 H        -0.901860         1.785133         2.808129
 H        -4.521830         0.923212         1.759764
 H        -2.340570        -0.874116         0.395866
 H        -2.498812         0.276055        -2.041872
 H        -3.902229         0.748184        -1.100350
 H        -1.611593         2.591950        -1.763198
 H        -3.097212         2.910357        -0.933742
 H        -1.256966         3.031050         0.927535
