19
Iteration:  3885charge 0 multiplicity 1
 O         0.641710         0.645918         0.215639
 C        -0.784220         0.953154         0.628963
 C        -1.361961         1.010045         2.131893
 C        -2.581796         1.264008         1.242098
 O        -3.763183         1.589288         1.877628
 C        -2.173221         0.202540         0.132296
 C        -2.600457         0.751206        -1.233361
 C        -2.273322         2.313097        -1.028692
 C        -1.685066         2.267608         0.407977
 H         1.056658         0.176360         0.944011
 H        -1.521930         0.178807         2.782342
 H        -1.140745         1.900720         2.775223
 H        -3.921312         1.099951         2.642791
 H        -2.138500        -0.845791         0.486140
 H        -1.940275         0.349768        -1.967580
 H        -3.676141         0.597946        -1.263828
 H        -1.645476         2.687570        -1.873888
 H        -3.148534         2.933476        -1.044137
 H        -1.453678         3.191497         0.952117
