19
Iteration:  3660charge 0 multiplicity 1
 O         0.364162         0.798723         0.026517
 C        -0.805497         0.899386         0.691161
 C        -1.247031         0.858835         2.230362
 C        -2.552063         1.344465         1.294034
 O        -3.797357         1.588450         1.761726
 C        -2.159908         0.203708         0.227502
 C        -2.508528         0.709942        -1.084077
 C        -2.187261         2.280665        -0.966229
 C        -1.574021         2.268269         0.408724
 H         1.002288         0.822432         0.751895
 H        -1.494878        -0.100678         2.823749
 H        -0.936169         1.648152         2.931111
 H        -4.438110         1.158444         1.101640
 H        -2.449678        -0.828556         0.485918
 H        -2.004437         0.097142        -1.855902
 H        -3.545596         0.640936        -1.458990
 H        -1.488566         2.738564        -1.648622
 H        -3.164611         2.895972        -1.022887
 H        -1.135166         3.125839         0.967047
