19
Iteration:  3547charge 0 multiplicity 1
 O         0.375491         0.673026         0.048579
 C        -0.863014         1.005975         0.780202
 C        -1.345350         0.880874         2.176410
 C        -2.514992         1.264724         1.346750
 O        -3.773750         1.628330         1.778057
 C        -1.962179         0.178632         0.178147
 C        -2.521079         0.745601        -1.167640
 C        -2.237648         2.237344        -0.974545
 C        -1.673270         2.274686         0.521758
 H         0.882587         1.436766        -0.003084
 H        -1.211289        -0.066283         2.607393
 H        -0.985916         1.765970         2.805558
 H        -4.278170         2.036204         1.165648
 H        -2.023178        -0.916386         0.316616
 H        -2.157938         0.244679        -2.040017
 H        -3.548528         0.471134        -1.341459
 H        -1.364378         2.386374        -1.666344
 H        -3.115278         2.801278        -1.237921
 H        -1.415703         3.131828         1.148907
