19
Iteration:   799charge 0 multiplicity 1
 O         0.478390         0.733575        -0.002852
 C        -0.828048         0.989768         0.661354
 C        -1.240776         0.910348         2.205687
 C        -2.532560         1.246238         1.350362
 O        -3.851110         1.736357         1.873742
 C        -2.039633         0.206679         0.181015
 C        -2.485678         0.728863        -1.220300
 C        -2.257038         2.294509        -1.001042
 C        -1.756852         2.196826         0.534967
 H         0.568700        -0.208804        -0.182195
 H        -1.198146        -0.115624         2.733473
 H        -0.699831         1.679369         2.894210
 H        -4.499974         0.874618         1.919798
 H        -2.166119        -0.843629         0.405710
 H        -1.794224         0.255727        -1.972572
 H        -3.495573         0.392662        -1.553420
 H        -1.396474         2.758897        -1.491428
 H        -3.125469         2.858146        -1.174052
 H        -1.541358         3.138366         1.249250
