19
Iteration:  3707
 O         0.463612         0.611549         0.157445
 C        -0.841731         0.986861         0.675988
 C        -1.142487         0.959163         2.106953
 C        -2.613550         1.242334         1.326231
 O        -3.877774         1.593629         1.837485
 C        -2.045101         0.205832         0.230500
 C        -2.532967         0.798271        -1.214596
 C        -2.212502         2.315602        -0.975366
 C        -1.748331         2.323833         0.406776
 H         1.036822         0.213274         0.781752
 H        -0.962237        -0.052677         2.553613
 H        -0.672566         1.830042         2.617615
 H        -4.525181         1.214099         1.327722
 H        -2.113263        -0.843917         0.557459
 H        -1.973492         0.310626        -2.055527
 H        -3.522480         0.378717        -1.374959
 H        -1.439401         2.656468        -1.692575
 H        -3.001706         3.068202        -1.050577
 H        -1.563812         3.135181         1.048969
