19
Iteration:   468charge 0 multiplicity 1
 O         0.422039         0.710289         0.191024
 C        -0.852092         0.994102         0.631278
 C        -1.285468         0.969820         2.081190
 C        -2.521234         1.361820         1.228870
 O        -3.719028         1.452401         1.891457
 C        -2.255061         0.228236         0.227800
 C        -2.495738         0.697417        -1.200579
 C        -2.269156         2.262332        -0.982566
 C        -1.614928         2.281816         0.302552
 H         1.086438         0.429811         0.936786
 H        -1.330002        -0.000412         2.588830
 H        -0.995066         1.735195         2.828061
 H        -3.449749         1.969152         2.777424
 H        -2.548575        -0.678252         0.681174
 H        -1.727075         0.287619        -1.853929
 H        -3.495903         0.546769        -1.691974
 H        -1.582202         2.689680        -1.728358
 H        -3.224543         2.761287        -0.934824
 H        -1.459656         3.276773         0.913354
