19
Iteration:  3481charge 0 multiplicity 1
 O         0.455670         0.621793         0.209300
 C        -0.797676         1.050000         0.597548
 C        -1.331255         1.014209         2.130082
 C        -2.522464         1.287489         1.257748
 O        -3.751653         1.506692         1.980168
 C        -2.143760         0.158116         0.213044
 C        -2.531795         0.780008        -1.212479
 C        -2.245590         2.288354        -1.073733
 C        -1.706899         2.267826         0.402628
 H         1.089047         0.397137         0.988677
 H        -1.120904         0.040409         2.547472
 H        -1.028644         1.840540         2.838111
 H        -4.318161         1.775666         1.143394
 H        -1.896601        -0.897687         0.445734
 H        -2.098649         0.417894        -2.145743
 H        -3.575311         0.544722        -1.311920
 H        -1.388046         2.607649        -1.758353
 H        -3.042863         3.020942        -1.164773
 H        -1.531816         3.212000         0.922416
