19
Iteration:  2188charge 0 multiplicity 1
 O         0.564837         0.798293         0.189906
 C        -0.731400         0.971719         0.698589
 C        -1.214902         0.910401         2.182954
 C        -2.515860         1.308680         1.301651
 O        -3.815985         1.636784         1.708233
 C        -2.130716         0.222218         0.197866
 C        -2.710902         0.646221        -1.158003
 C        -2.285734         2.226437        -1.000307
 C        -1.643993         2.285044         0.409503
 H         0.884597        -0.000842         0.410001
 H        -1.366464        -0.083226         2.504213
 H        -1.001376         1.690650         2.933852
 H        -3.994074         0.896583         2.230516
 H        -2.468377        -0.747986         0.628096
 H        -2.326872         0.302582        -2.145087
 H        -3.880977         0.510894        -1.138903
 H        -1.497347         2.587599        -1.741240
 H        -3.129334         2.926988        -1.070309
 H        -1.390741         3.289675         0.735902
