19
Iteration:   869
 O         0.488131         0.736259         0.173582
 C        -0.763524         1.030683         0.611809
 C        -1.232321         0.913095         2.077182
 C        -2.534694         1.228658         1.275355
 O        -3.757894         1.566970         1.806866
 C        -2.114035         0.244758         0.211701
 C        -2.726021         0.737709        -1.103612
 C        -2.188004         2.335783        -0.991163
 C        -1.688511         2.295667         0.442216
 H         0.887705        -0.010905         0.743796
 H        -1.239701        -0.064360         2.551225
 H        -0.891726         1.582662         2.803033
 H        -4.381353         0.770601         2.027096
 H        -2.027820        -0.904760         0.361144
 H        -2.388453         0.156761        -1.993721
 H        -3.897263         0.633157        -1.105869
 H        -1.439773         2.452138        -1.780699
 H        -2.989381         3.093128        -1.159275
 H        -1.345638         3.187870         0.889850
