19
Iteration:   980
 O         0.477590         0.719332         0.038460
 C        -0.782114         0.949763         0.620633
 C        -1.336261         0.950207         2.098340
 C        -2.580150         1.334495         1.323105
 O        -3.831184         1.585308         1.934290
 C        -2.194771         0.283411         0.209739
 C        -2.441160         0.760493        -1.188460
 C        -2.186403         2.244242        -0.958373
 C        -1.672353         2.248627         0.458845
 H         0.794639        -0.143304         0.004534
 H        -1.301024         0.047604         2.747136
 H        -0.870010         1.814630         2.627917
 H        -4.159362         0.769764         2.340694
 H        -2.348149        -0.827536         0.443932
 H        -1.663315         0.282828        -1.825094
 H        -3.520602         0.560584        -1.592943
 H        -1.449551         2.599979        -1.665280
 H        -3.138120         2.818250        -0.997142
 H        -1.369476         3.131187         0.894289
