19
Iteration:  2131charge 0 multiplicity 1
 O         0.523600         0.721318         0.048919
 C        -0.800438         0.982948         0.657620
 C        -1.299063         0.956861         2.154990
 C        -2.553212         1.311465         1.377346
 O        -3.819050         1.617267         1.724238
 C        -2.128605         0.278400         0.298249
 C        -2.460847         0.689378        -1.141451
 C        -2.314820         2.184815        -0.985008
 C        -1.678696         2.315044         0.438299
 H         0.731819        -0.301870         0.313386
 H        -1.396304         0.012466         2.704569
 H        -0.769404         1.540202         2.868306
 H        -4.092451         1.168143         2.624624
 H        -2.268639        -0.779845         0.592802
 H        -1.688523         0.420978        -1.952240
 H        -3.541366         0.372492        -1.608855
 H        -1.726256         2.738381        -1.846996
 H        -3.331954         2.642302        -1.027308
 H        -1.358761         3.325470         0.663225
