19
Iteration:    73charge 0 multiplicity 1
 O         0.551645         0.816386         0.157612
 C        -0.766487         0.911257         0.654188
 C        -1.274441         0.854419         2.091381
 C        -2.542235         1.311929         1.278878
 O        -3.902914         1.449234         1.840128
 C        -2.156914         0.279272         0.237174
 C        -2.589932         0.771840        -1.172582
 C        -2.195752         2.309404        -0.973590
 C        -1.632511         2.251116         0.437564
 H         0.683953        -0.096615        -0.012330
 H        -1.143113        -0.182671         2.583642
 H        -0.918881         1.577335         2.840094
 H        -4.192186         2.401071         1.915683
 H        -2.559007        -0.770663         0.511867
 H        -2.001629         0.275659        -1.966534
 H        -3.711976         0.668992        -1.210009
 H        -1.356993         2.692269        -1.708838
 H        -3.131000         2.931155        -1.098930
 H        -1.147388         3.153957         0.855610
