19
Iteration:  4106
 O         0.513979         0.687367         0.147162
 C        -0.831392         0.966413         0.668796
 C        -1.290984         1.102692         2.287364
 C        -2.571847         1.275607         1.293263
 O        -3.852828         1.508203         1.752899
 C        -2.133792         0.165170         0.231028
 C        -2.560610         0.660266        -1.139793
 C        -2.213316         2.238677        -0.998359
 C        -1.625822         2.270127         0.358274
 H         0.808979         1.323034        -0.408771
 H        -1.276277         0.107544         2.809269
 H        -0.899350         1.909491         2.890773
 H        -4.041118         2.408809         2.011141
 H        -2.137931        -0.851421         0.679046
 H        -1.993309         0.128589        -1.875208
 H        -3.546278         0.284438        -1.467244
 H        -1.548668         2.502119        -1.824237
 H        -3.091497         2.893091        -1.154294
 H        -1.121853         3.179313         0.841947
