19
Iteration:  2957
 O         0.598073         0.752250         0.348797
 C        -0.822561         0.970549         0.575881
 C        -1.183078         1.065065         2.161059
 C        -2.508470         1.261853         1.281055
 O        -3.859774         1.470562         1.779419
 C        -2.320701         0.194751         0.253786
 C        -2.654965         0.772469        -1.176280
 C        -2.181543         2.190320        -1.015654
 C        -1.629009         2.269452         0.300857
 H         0.641014         0.819702        -0.682095
 H        -1.028283         0.178194         2.783266
 H        -0.662454         1.772433         2.774155
 H        -3.770827         1.832319         2.601297
 H        -2.471941        -0.846379         0.525864
 H        -2.117938         0.065595        -1.815157
 H        -3.717085         0.582619        -1.381792
 H        -1.761490         2.557263        -1.885495
 H        -3.124490         2.781362        -1.101271
 H        -1.193736         3.167206         0.873663
