19
Iteration:   934
 O         0.417439         0.837192         0.058735
 C        -0.825224         0.956476         0.679479
 C        -1.273852         0.826745         2.159298
 C        -2.477842         1.315829         1.334275
 O        -3.789030         1.604513         1.729250
 C        -2.175401         0.254513         0.223203
 C        -2.511428         0.736575        -1.118821
 C        -2.236398         2.204480        -0.978621
 C        -1.636862         2.320205         0.469969
 H         0.651035        -0.043763        -0.032462
 H        -1.624963        -0.258481         2.479477
 H        -0.887250         1.345896         3.013297
 H        -3.881797         1.212131         2.686374
 H        -2.317907        -0.882796         0.397743
 H        -1.854221         0.297396        -1.897871
 H        -3.637899         0.510156        -1.348146
 H        -1.564153         2.582467        -1.714094
 H        -3.141383         2.757941        -0.925384
 H        -1.150486         3.221242         0.809740
