19
Iteration:   701charge 0 multiplicity 1
 O         0.410236         0.677561         0.136367
 C        -0.850586         0.959584         0.638856
 C        -1.243177         0.909549         2.229817
 C        -2.422165         1.351029         1.373992
 O        -3.721159         1.372038         1.698095
 C        -2.177882         0.337320         0.233573
 C        -2.704670         0.787159        -1.131001
 C        -2.215707         2.249210        -1.001108
 C        -1.638472         2.240856         0.449158
 H         0.998236         1.433628         0.164975
 H        -1.452434        -0.098660         2.586739
 H        -0.730196         1.635218         2.820068
 H        -4.024145         2.387398         1.646789
 H        -2.305926        -0.717645         0.479379
 H        -2.157954         0.301156        -1.970637
 H        -3.802563         0.736467        -1.209794
 H        -1.381369         2.387291        -1.705383
 H        -2.947490         2.990045        -1.058771
 H        -1.190073         3.291135         0.685542
