19
Iteration:  1790charge 0 multiplicity 1
 O         0.397288         0.805057         0.024060
 C        -0.837855         0.940603         0.696897
 C        -1.273967         0.903957         2.194297
 C        -2.563660         1.333077         1.323172
 O        -3.811306         1.675432         1.886467
 C        -2.145105         0.204582         0.273767
 C        -2.408094         0.652053        -1.146520
 C        -2.221824         2.203269        -1.121324
 C        -1.712467         2.296559         0.391993
 H         0.906826         0.036621         0.470507
 H        -1.292763        -0.164340         2.717591
 H        -0.801445         1.730703         2.801287
 H        -3.897926         1.125421         2.744869
 H        -2.257627        -0.866912         0.458476
 H        -1.567081         0.261036        -1.740038
 H        -3.412665         0.342051        -1.592164
 H        -1.489374         2.600595        -1.916384
 H        -3.180026         2.756943        -1.311136
 H        -1.434098         3.266327         0.755388
