19
Iteration:   432charge 0 multiplicity 1
 O         0.452462         0.563968         0.110278
 C        -0.781561         0.981705         0.653213
 C        -1.188316         0.985822         2.115998
 C        -2.524747         1.370652         1.285639
 O        -3.922705         1.538264         1.731054
 C        -1.984622         0.211318         0.230172
 C        -2.541565         0.714462        -1.152914
 C        -2.296635         2.264034        -0.909578
 C        -1.714176         2.285724         0.410257
 H         1.092421         1.082151         0.767151
 H        -1.180211        -0.123874         2.461512
 H        -0.667413         1.756107         2.736023
 H        -3.933387         2.017223         2.672548
 H        -2.281001        -0.847905         0.603312
 H        -2.083648         0.421252        -2.128814
 H        -3.663764         0.470849        -1.185069
 H        -1.715884         2.764525        -1.636006
 H        -3.191000         2.891954        -0.888033
 H        -1.474983         3.328422         0.839759
