19
Iteration:  4730
 O         0.492092         0.884768         0.200616
 C        -0.818736         1.031004         0.693760
 C        -1.215036         1.113902         2.180965
 C        -2.498001         1.309976         1.309892
 O        -3.826705         1.672775         1.633395
 C        -2.085564         0.191537         0.320774
 C        -2.529299         0.452756        -1.035080
 C        -2.305562         2.075940        -1.038513
 C        -1.724557         2.227876         0.341554
 H         0.261921         0.284115        -0.568180
 H        -1.377841         0.221857         2.731239
 H        -0.952597         1.955729         2.847217
 H        -4.043267         1.738745         2.606825
 H        -2.187180        -0.891924         0.577151
 H        -1.724205        -0.009465        -1.646963
 H        -3.634036         0.148348        -1.198976
 H        -1.530191         2.133717        -1.846732
 H        -3.111708         2.622762        -1.490785
 H        -1.223269         3.223762         0.672833
