19
Iteration:  2209
 O         0.424087         0.913072         0.167386
 C        -0.842106         0.968444         0.593496
 C        -1.264910         0.836037         2.158333
 C        -2.518904         1.293471         1.341672
 O        -3.770602         1.651248         1.776073
 C        -2.123420         0.242123         0.263233
 C        -2.652506         0.725669        -1.034115
 C        -2.155146         2.168295        -1.098731
 C        -1.617209         2.244976         0.380978
 H         0.776516         0.044442         0.590570
 H        -1.346689        -0.170033         2.535538
 H        -0.801203         1.524627         2.885155
 H        -4.214370         0.728574         1.842378
 H        -2.092276        -0.848196         0.351798
 H        -2.220494         0.141431        -1.875098
 H        -3.836010         0.655756        -1.057426
 H        -1.265801         2.366169        -1.795713
 H        -3.025867         2.775868        -1.307880
 H        -1.337668         3.195515         0.784671
