19
Iteration:  3827charge 0 multiplicity 1
 O         0.459153         0.837016         0.026511
 C        -0.802187         0.952576         0.711801
 C        -1.245637         0.880178         2.186175
 C        -2.538979         1.386146         1.307412
 O        -3.868684         1.476576         1.737845
 C        -2.213640         0.252002         0.252749
 C        -2.509911         0.714109        -1.082549
 C        -2.149421         2.228437        -0.952345
 C        -1.601218         2.242941         0.448276
 H         0.863082        -0.112827         0.023558
 H        -1.483907        -0.154936         2.529163
 H        -0.899767         1.609573         2.960806
 H        -4.356886         2.380622         1.897033
 H        -2.614485        -0.709777         0.556369
 H        -2.052813         0.193474        -1.959381
 H        -3.504747         0.482061        -1.379573
 H        -1.383232         2.474799        -1.718638
 H        -3.023540         2.914827        -1.056057
 H        -1.256302         3.202631         0.766214
