19
Iteration:  3441charge 0 multiplicity 1
 O         0.403547         0.647650         0.203071
 C        -0.844578         0.985156         0.621133
 C        -1.212171         1.003757         2.095046
 C        -2.496766         1.331112         1.361607
 O        -3.791171         1.400421         1.885133
 C        -2.152377         0.269735         0.285122
 C        -2.570730         0.760374        -1.186632
 C        -2.201676         2.284562        -1.050853
 C        -1.604517         2.312047         0.323753
 H         0.861943         0.711087         0.999403
 H        -1.405809         0.082421         2.651931
 H        -0.898128         1.832718         2.769054
 H        -4.424368         1.268158         1.207295
 H        -2.400420        -0.711047         0.647253
 H        -1.976952         0.318858        -2.028931
 H        -3.705020         0.736487        -1.398396
 H        -1.446216         2.509467        -1.787565
 H        -3.021703         2.996188        -1.338421
 H        -1.383624         3.290940         0.789998
