19
Iteration:  3855
 O         0.417726         0.713032         0.220954
 C        -0.886148         1.001125         0.628047
 C        -1.186295         0.934556         2.139584
 C        -2.537030         1.283784         1.326371
 O        -3.801177         1.512020         1.780635
 C        -2.130801         0.223029         0.163714
 C        -2.539793         0.732898        -1.161458
 C        -2.218945         2.330174        -1.060589
 C        -1.653221         2.271824         0.407389
 H         0.823778        -0.002599         0.714092
 H        -1.250698        -0.041436         2.666368
 H        -0.869654         1.694182         2.833356
 H        -4.012859         1.978003         2.646397
 H        -2.183873        -0.852726         0.460651
 H        -1.954005         0.250300        -1.949440
 H        -3.661438         0.477101        -1.387964
 H        -1.470573         2.525313        -1.805994
 H        -3.121428         2.966132        -1.137579
 H        -1.338602         3.249760         0.919518
