19
Iteration:  4877charge 0 multiplicity 1
 O         0.500643         0.755813         0.171910
 C        -0.776150         1.030675         0.688457
 C        -1.255589         1.072024         2.165359
 C        -2.539608         1.393740         1.319690
 O        -3.865987         1.616307         1.662127
 C        -2.062546         0.201375         0.367319
 C        -2.517819         0.486500        -1.056259
 C        -2.251204         1.992466        -1.095449
 C        -1.702932         2.287940         0.380636
 H         0.713587         1.489686        -0.405924
 H        -1.325100         0.119196         2.850332
 H        -0.926227         1.968751         2.685614
 H        -4.058661         2.389204         2.216296
 H        -2.215894        -0.750926         0.891453
 H        -1.984746        -0.083905        -1.869432
 H        -3.570127         0.097669        -1.226119
 H        -1.680040         2.347262        -1.993134
 H        -3.264326         2.634013        -1.041541
 H        -1.567959         3.424404         0.618548
