19
Iteration:    35
 O         0.393082         0.772460         0.089292
 C        -0.815406         0.931882         0.718472
 C        -1.212080         0.863104         2.190190
 C        -2.573603         1.275174         1.320144
 O        -3.829443         1.436256         1.834156
 C        -2.155314         0.256574         0.164420
 C        -2.558057         0.813367        -1.189072
 C        -2.086843         2.303745        -1.057072
 C        -1.738080         2.253972         0.457223
 H         1.104711         0.548847         0.604927
 H        -1.071933        -0.128247         2.559681
 H        -0.947246         1.628932         2.951045
 H        -3.920689         2.333594         1.902066
 H        -2.365000        -0.737891         0.455638
 H        -2.299486         0.226301        -2.062539
 H        -3.631562         0.821429        -1.135076
 H        -1.139216         2.508382        -1.609835
 H        -2.791821         3.097600        -1.335524
 H        -1.290371         3.152565         0.947957
