19
Iteration:  4315
 O         0.442814         0.778029         0.243047
 C        -0.804918         0.959582         0.716513
 C        -1.244281         1.035511         2.198823
 C        -2.506515         1.384639         1.284265
 O        -3.803530         1.561716         1.729326
 C        -2.051198         0.206098         0.398803
 C        -2.503529         0.578242        -1.062266
 C        -2.280524         2.030545        -1.173631
 C        -1.750688         2.371089         0.288837
 H         0.421948         1.126020        -0.766950
 H        -1.477012         0.024611         2.647785
 H        -0.725229         1.789782         2.806575
 H        -3.752608         2.263501         2.431755
 H        -2.306234        -0.820742         0.720762
 H        -1.911267        -0.044575        -1.711176
 H        -3.542235         0.215275        -1.332767
 H        -1.546801         2.317058        -1.906098
 H        -3.173281         2.630936        -1.549714
 H        -1.513587         3.444047         0.601022
