19
Iteration:  2323
 O         0.554038         0.773644         0.227265
 C        -0.806770         0.937776         0.675838
 C        -1.270395         0.976708         2.098767
 C        -2.520076         1.248790         1.218149
 O        -3.703683         1.696303         1.705678
 C        -2.183283         0.134665         0.187119
 C        -2.548274         0.710122        -1.116392
 C        -2.366820         2.235858        -0.899748
 C        -1.695153         2.245220         0.419650
 H         0.883738        -0.044218         0.075986
 H        -1.148681         0.038238         2.725114
 H        -0.964870         1.928772         2.594475
 H        -4.085846         1.232871         2.479884
 H        -2.517928        -0.905944         0.458234
 H        -1.804847         0.377011        -1.926822
 H        -3.558942         0.443384        -1.529642
 H        -1.793678         2.806382        -1.597016
 H        -3.429176         2.630646        -0.788327
 H        -1.487966         3.284410         0.885051
