19
Iteration:  4094
 O         0.439437         0.698531         0.154292
 C        -0.784228         1.009335         0.672219
 C        -1.307782         1.009090         2.187040
 C        -2.498547         1.322170         1.316820
 O        -3.838241         1.498920         1.707722
 C        -2.108257         0.260377         0.336397
 C        -2.549793         0.665917        -1.071479
 C        -2.236408         2.164341        -1.013907
 C        -1.573916         2.236111         0.398276
 H         0.524549         1.291688        -0.671023
 H        -1.433248         0.035151         2.710982
 H        -1.082378         1.799916         2.927369
 H        -4.155351         2.340223         1.233849
 H        -2.183798        -0.844583         0.422172
 H        -1.839394         0.230487        -1.780019
 H        -3.618393         0.494559        -1.260072
 H        -1.636123         2.578697        -1.832699
 H        -3.146928         2.785979        -0.869286
 H        -1.336387         3.281387         0.738066
