19
Iteration:  1410charge 0 multiplicity 1
 O         0.481715         0.669252         0.038306
 C        -0.735654         1.023809         0.615605
 C        -1.291065         0.891709         2.220596
 C        -2.531723         1.326859         1.368947
 O        -3.813187         1.597509         1.788908
 C        -2.114665         0.292049         0.285049
 C        -2.568441         0.648415        -1.088920
 C        -2.261644         2.231779        -1.082278
 C        -1.721924         2.355872         0.376515
 H         1.262604         0.838971         0.655953
 H        -1.378263        -0.102267         2.621152
 H        -0.771627         1.668310         2.964789
 H        -4.200036         0.845252         2.159521
 H        -2.215341        -0.731542         0.653580
 H        -2.071156         0.112932        -1.915595
 H        -3.603394         0.319538        -1.214827
 H        -1.503755         2.581640        -1.771349
 H        -3.164393         2.765156        -1.264162
 H        -1.350562         3.366177         0.829983
