19
Iteration:  1852charge 0 multiplicity 1
 O         0.562917         0.770000         0.213561
 C        -0.789822         1.012809         0.682966
 C        -1.205249         1.023530         2.177205
 C        -2.483625         1.225428         1.280813
 O        -3.803940         1.666465         1.669132
 C        -2.080743         0.155741         0.213740
 C        -2.761415         0.707198        -1.125018
 C        -2.295292         2.211478        -0.943682
 C        -1.648717         2.221824         0.378866
 H         0.854769        -0.207955         0.342773
 H        -0.948035         0.271519         2.823701
 H        -0.908862         1.934963         2.550268
 H        -4.353053         0.835265         1.768138
 H        -2.073856        -0.908922         0.468787
 H        -2.549287         0.302647        -2.107945
 H        -3.826072         0.584752        -1.099225
 H        -1.711781         2.659660        -1.646912
 H        -3.133975         2.886346        -0.772064
 H        -1.307879         3.144086         0.875785
