19
Iteration:   285
 O         0.440617         0.759109         0.242944
 C        -0.836250         0.947910         0.647318
 C        -1.221024         0.910347         2.142494
 C        -2.450264         1.387163         1.343437
 O        -3.806155         1.530257         1.664441
 C        -2.094682         0.205498         0.230001
 C        -2.562607         0.732762        -1.178470
 C        -2.351592         2.250360        -0.959928
 C        -1.639412         2.273635         0.441192
 H         0.576062         0.088827        -0.380424
 H        -1.269948        -0.079280         2.583404
 H        -0.598011         1.609144         2.774901
 H        -3.965159         1.817172         2.499748
 H        -2.217130        -0.816033         0.511759
 H        -1.962453         0.257202        -1.985021
 H        -3.615118         0.525619        -1.304235
 H        -1.726834         2.744542        -1.733724
 H        -3.333791         2.760132        -0.883950
 H        -1.168433         3.146536         0.715175
