19
Iteration:  3018charge 0 multiplicity 1
 O         0.455662         0.750973         0.160506
 C        -0.856459         0.979332         0.647840
 C        -1.235562         0.959444         2.159695
 C        -2.539321         1.297100         1.325034
 O        -3.833521         1.636670         1.817451
 C        -2.078542         0.169500         0.208792
 C        -2.474031         0.735603        -1.122003
 C        -2.289657         2.208516        -1.015658
 C        -1.649826         2.225131         0.506922
 H         0.365884         0.609214        -0.825723
 H        -1.285507        -0.088494         2.553409
 H        -0.779512         1.743630         2.838534
 H        -4.440595         1.676729         1.034312
 H        -2.252525        -0.852492         0.581529
 H        -1.768757         0.210179        -1.819782
 H        -3.453322         0.303131        -1.362721
 H        -1.428733         2.503078        -1.718415
 H        -3.166081         2.837345        -1.056563
 H        -1.262548         3.136998         0.921629
