19
Iteration:  4550charge 0 multiplicity 1
 O         0.483065         0.686409         0.460995
 C        -0.807480         1.077146         0.596698
 C        -1.267927         1.165711         2.135842
 C        -2.458229         1.474406         1.309947
 O        -3.765461         1.420280         1.777059
 C        -2.112234         0.243847         0.379910
 C        -2.601395         0.537305        -1.136030
 C        -2.392821         2.085628        -1.169411
 C        -1.649132         2.299187         0.222293
 H         0.713896         0.519957        -0.574320
 H        -1.141249         0.126695         2.494548
 H        -0.916378         2.102793         2.611604
 H        -3.787079         2.139172         2.397474
 H        -2.084448        -0.713575         0.908366
 H        -1.921116         0.171384        -2.003818
 H        -3.513016         0.083110        -1.470724
 H        -1.758534         2.385181        -2.030525
 H        -3.278392         2.767952        -1.345423
 H        -1.324777         3.278991         0.455733
