19
Iteration:  2471charge 0 multiplicity 1
 O         0.478375         0.839693         0.221621
 C        -0.842226         0.887418         0.649585
 C        -1.227388         0.983642         2.095171
 C        -2.494626         1.283159         1.244723
 O        -3.742595         1.731156         1.701629
 C        -2.156149         0.122231         0.209413
 C        -2.484663         0.695889        -1.118583
 C        -2.326919         2.219607        -0.871567
 C        -1.695245         2.212870         0.455480
 H         0.498414         0.017232        -0.407836
 H        -1.319760        -0.035057         2.630217
 H        -0.841553         1.862251         2.734374
 H        -4.112436         1.044237         2.266998
 H        -2.383028        -0.880527         0.544185
 H        -1.982168         0.260098        -1.956291
 H        -3.483317         0.524451        -1.428520
 H        -1.800701         2.677121        -1.752609
 H        -3.309624         2.670855        -0.997112
 H        -1.304272         3.054036         0.934089
