19
Iteration:   466charge 0 multiplicity 1
 O         0.428230         0.701885         0.190055
 C        -0.867093         1.005933         0.625991
 C        -1.287055         0.977017         2.093968
 C        -2.521943         1.349374         1.232567
 O        -3.699947         1.450818         1.879085
 C        -2.257194         0.238947         0.224548
 C        -2.503391         0.701783        -1.182199
 C        -2.270827         2.256236        -0.997940
 C        -1.600687         2.288387         0.312294
 H         1.063879         0.472052         0.923982
 H        -1.320672        -0.037471         2.633414
 H        -1.009325         1.717922         2.882638
 H        -3.475565         1.896797         2.696140
 H        -2.631250        -0.698978         0.724885
 H        -1.732454         0.308034        -1.867725
 H        -3.471370         0.514820        -1.765808
 H        -1.671875         2.699263        -1.756589
 H        -3.215202         2.781402        -0.913622
 H        -1.490709         3.258531         0.924534
