19
Iteration:  1964charge 0 multiplicity 1
 O         0.458510         0.811130         0.123219
 C        -0.816361         1.021049         0.603134
 C        -1.326743         0.904364         2.109693
 C        -2.524595         1.342815         1.333171
 O        -3.830410         1.701060         1.859541
 C        -2.148926         0.170379         0.238865
 C        -2.455937         0.610096        -1.146258
 C        -2.235359         2.197490        -0.981174
 C        -1.632923         2.309682         0.373274
 H         0.727250        -0.030059         0.344162
 H        -1.445415        -0.088926         2.456795
 H        -0.769941         1.354357         2.877895
 H        -4.128907         1.002631         2.457642
 H        -2.120338        -0.855508         0.553021
 H        -1.811754         0.111578        -1.916637
 H        -3.424759         0.274142        -1.563923
 H        -1.839868         2.686810        -1.824076
 H        -3.256778         2.615066        -1.012384
 H        -1.287912         3.255665         0.841367
