19
Iteration:  4331charge 0 multiplicity 1
 O         0.499229         0.814272         0.195075
 C        -0.838879         1.073548         0.647534
 C        -1.208956         1.050009         2.165240
 C        -2.489564         1.394856         1.346981
 O        -3.837010         1.643951         1.612877
 C        -2.195297         0.206306         0.370475
 C        -2.515225         0.436330        -1.037378
 C        -2.232100         2.076543        -1.037071
 C        -1.755647         2.232655         0.364911
 H         0.521741         0.762219        -0.771640
 H        -1.078449         0.108667         2.654048
 H        -0.842310         1.881349         2.799064
 H        -3.987883         1.669437         2.561518
 H        -2.115391        -0.769688         0.842326
 H        -1.807022         0.038796        -1.792668
 H        -3.541375         0.285319        -1.281035
 H        -1.450680         2.386911        -1.860195
 H        -3.111485         2.678765        -1.314297
 H        -1.357200         3.160995         0.696030
