19
Iteration:  1221charge 0 multiplicity 1
 O         0.551675         0.754110         0.125993
 C        -0.779825         0.907548         0.574653
 C        -1.162043         0.914593         2.120083
 C        -2.534266         1.300834         1.276667
 O        -3.914164         1.632589         1.636386
 C        -2.091409         0.204830         0.259794
 C        -2.698018         0.740027        -0.993947
 C        -2.234775         2.290000        -0.947456
 C        -1.614822         2.255573         0.437295
 H         0.970244         0.537357         0.922288
 H        -1.195526        -0.133680         2.646596
 H        -0.689396         1.800534         2.733170
 H        -4.320321         0.846186         2.047319
 H        -2.214590        -0.895176         0.553461
 H        -2.527260         0.179876        -1.894204
 H        -3.830574         0.750892        -0.927826
 H        -1.540875         2.670796        -1.635622
 H        -3.167312         2.775155        -1.057569
 H        -1.298266         3.100259         0.984321
