19
Iteration:  1505
 O         0.540433         0.667302         0.189782
 C        -0.782111         1.024608         0.666342
 C        -1.233376         0.930116         2.171852
 C        -2.467834         1.290788         1.345358
 O        -3.780382         1.649367         1.697819
 C        -2.120900         0.194670         0.248253
 C        -2.663599         0.723646        -1.101082
 C        -2.344273         2.221529        -0.992237
 C        -1.683912         2.260938         0.346866
 H         0.951272         1.517684         0.102839
 H        -1.338206        -0.101957         2.724714
 H        -0.733577         1.632978         2.763721
 H        -4.242102         0.774209         2.125363
 H        -2.330076        -0.898129         0.598363
 H        -2.060822         0.262927        -1.905186
 H        -3.750816         0.576078        -1.371978
 H        -1.575767         2.405937        -1.803851
 H        -3.187680         2.966268        -1.088362
 H        -1.336243         3.215892         0.735965
