19
Iteration:  4485
 O         0.466524         0.872215         0.196563
 C        -0.820676         1.029236         0.704547
 C        -1.230628         1.023189         2.147352
 C        -2.514533         1.379542         1.287332
 O        -3.797537         1.610791         1.640953
 C        -2.185318         0.157984         0.481670
 C        -2.524968         0.511382        -1.037497
 C        -2.217943         2.024513        -1.150599
 C        -1.678018         2.286121         0.350106
 H         0.629784         0.967243        -0.837748
 H        -1.280019         0.058570         2.693516
 H        -0.884858         1.868013         2.715585
 H        -3.966605         2.341707         2.284830
 H        -2.278217        -0.781682         1.036257
 H        -2.057872        -0.249859        -1.742606
 H        -3.549462         0.301350        -1.264507
 H        -1.570006         2.318421        -1.995515
 H        -3.190559         2.380057        -1.028136
 H        -1.487370         3.300034         0.652387
