19
Iteration:  4806charge 0 multiplicity 1
 O         0.519237         0.796682         0.225857
 C        -0.798938         1.034659         0.654893
 C        -1.250838         1.171417         2.187515
 C        -2.534036         1.371720         1.289032
 O        -3.865188         1.588657         1.893810
 C        -2.104074         0.235148         0.359343
 C        -2.562402         0.540154        -1.059224
 C        -2.257265         2.066698        -1.207074
 C        -1.653954         2.254895         0.184602
 H         0.858490         0.061078         0.817031
 H        -1.072831         0.230134         2.650601
 H        -0.839811         2.066005         2.689900
 H        -4.428934         0.909708         1.507495
 H        -2.223784        -0.840476         0.665095
 H        -2.019111        -0.061210        -1.816069
 H        -3.643858         0.240857        -1.231753
 H        -1.608032         2.352510        -2.069988
 H        -3.015422         2.731250        -1.428620
 H        -1.530774         3.233650         0.706210
