19
Iteration:  2264charge 0 multiplicity 1
 O         0.399146         0.783823         0.050749
 C        -0.876979         0.977098         0.620902
 C        -1.322681         0.973053         2.154898
 C        -2.549720         1.310788         1.385198
 O        -3.784353         1.575668         1.830739
 C        -2.141473         0.219495         0.342495
 C        -2.496740         0.680992        -1.111822
 C        -2.165236         2.272937        -1.066977
 C        -1.645337         2.293327         0.422670
 H         0.607764        -0.261411         0.218751
 H        -1.156368         0.030069         2.589780
 H        -0.816956         1.799265         2.674186
 H        -4.226759         0.632305         1.894069
 H        -2.224182        -0.835014         0.640379
 H        -1.841940         0.266148        -1.904075
 H        -3.568597         0.418451        -1.498770
 H        -1.220880         2.574837        -1.635902
 H        -2.885564         2.913384        -1.524198
 H        -1.130662         3.164230         0.785467
