19
Iteration:  2729
 O         0.499906         0.850012         0.196201
 C        -0.801114         0.922063         0.673880
 C        -1.284248         0.943142         2.123835
 C        -2.514268         1.306189         1.236928
 O        -3.803731         1.671061         1.771225
 C        -2.153361         0.233235         0.288224
 C        -2.562043         0.657920        -1.090166
 C        -2.182955         2.155790        -1.007735
 C        -1.675391         2.156380         0.394384
 H         0.412468         1.237580        -0.732099
 H        -1.311114         0.005817         2.666253
 H        -0.805460         1.700460         2.724784
 H        -4.349113         0.860060         2.228039
 H        -2.435914        -0.770515         0.629879
 H        -2.306399         0.230788        -1.978505
 H        -3.682882         0.671445        -1.127460
 H        -1.437967         2.397022        -1.811374
 H        -2.965801         2.901627        -0.951994
 H        -1.169100         3.109136         0.753454
