19
Iteration:  4321
 O         0.459212         0.797180         0.214908
 C        -0.836266         0.986636         0.679772
 C        -1.244906         1.024822         2.202957
 C        -2.494290         1.375812         1.306498
 O        -3.804489         1.592286         1.668355
 C        -2.079654         0.180512         0.415994
 C        -2.519862         0.570390        -1.058126
 C        -2.277042         2.053936        -1.150877
 C        -1.763217         2.371005         0.326838
 H         0.510536         0.967336        -0.686857
 H        -1.323872         0.061037         2.715983
 H        -0.659510         1.724979         2.803119
 H        -3.743469         2.033430         2.512148
 H        -2.294377        -0.779728         0.900243
 H        -1.828821        -0.083976        -1.685350
 H        -3.492864         0.240673        -1.382590
 H        -1.363766         2.213678        -1.812114
 H        -3.233842         2.435153        -1.434828
 H        -1.464555         3.374992         0.571389
