19
Iteration:  4771
 O         0.405763         0.837591         0.132668
 C        -0.807535         1.031766         0.700593
 C        -1.285548         1.187169         2.205943
 C        -2.498975         1.358718         1.300535
 O        -3.860079         1.673965         1.742213
 C        -2.071519         0.175110         0.369798
 C        -2.505392         0.467843        -1.069140
 C        -2.234457         2.063979        -1.151269
 C        -1.687856         2.254809         0.345967
 H         0.632283        -0.000542        -0.421110
 H        -1.141592         0.246761         2.822739
 H        -0.794362         1.987970         2.765934
 H        -4.151714         0.932257         2.282492
 H        -2.137430        -0.910219         0.608985
 H        -1.702324         0.019518        -1.754672
 H        -3.512691         0.103816        -1.224697
 H        -1.189071         2.096252        -1.628318
 H        -3.068894         2.759516        -1.273029
 H        -1.574991         3.296893         0.701729
