19
Iteration:   355
 O         0.462786         0.698928         0.177929
 C        -0.820922         1.040158         0.682222
 C        -1.174320         0.928276         2.178839
 C        -2.525262         1.225100         1.319287
 O        -3.817442         1.515206         1.865762
 C        -2.165760         0.180919         0.224596
 C        -2.634412         0.758796        -1.170421
 C        -2.128368         2.225912        -1.091055
 C        -1.759967         2.275444         0.429252
 H         0.717867         1.460644        -0.366647
 H        -1.348846        -0.129735         2.582882
 H        -0.869055         1.633711         2.981843
 H        -3.866886         2.507976         1.887674
 H        -2.204116        -0.975197         0.298233
 H        -1.976665         0.319362        -1.968318
 H        -3.704804         0.780277        -1.497961
 H        -1.260302         2.356900        -1.689919
 H        -2.886538         2.902238        -1.457343
 H        -1.420510         3.262584         0.975594
