19
Iteration:   264
 O         0.517228         0.707884         0.150826
 C        -0.769007         1.041871         0.666037
 C        -1.317351         0.972598         2.149464
 C        -2.519614         1.161732         1.235632
 O        -3.822849         1.594788         1.682695
 C        -1.991464         0.181922         0.190234
 C        -2.619256         0.746180        -1.061695
 C        -2.295791         2.283505        -0.924621
 C        -1.692492         2.270261         0.451068
 H         0.499429        -0.224478        -0.305325
 H        -1.255753         0.025764         2.668512
 H        -1.154510         1.868273         2.834908
 H        -3.638863         2.161441         2.556352
 H        -2.099824        -0.870632         0.358573
 H        -2.047435         0.342338        -1.929692
 H        -3.660948         0.448739        -1.082783
 H        -1.611858         2.616382        -1.677478
 H        -3.171192         2.941351        -0.970346
 H        -1.505347         3.124585         1.039858
