19
Iteration:   815
 O         0.338997         0.784544         0.029606
 C        -0.827636         0.972689         0.663108
 C        -1.224903         0.905271         2.142683
 C        -2.548264         1.186140         1.350806
 O        -3.707543         1.657325         1.805515
 C        -2.172009         0.184969         0.248650
 C        -2.428135         0.781092        -1.150593
 C        -2.190814         2.259388        -0.924899
 C        -1.754401         2.280852         0.458620
 H         0.696405        -0.189274         0.168453
 H        -1.099110        -0.002547         2.657456
 H        -1.027861         1.767123         2.698113
 H        -4.472754         1.015323         1.656768
 H        -2.118498        -0.962084         0.356503
 H        -1.766224         0.383133        -1.923526
 H        -3.537358         0.637982        -1.339584
 H        -1.436869         2.561696        -1.674053
 H        -3.173387         2.873286        -0.945837
 H        -1.412632         3.184278         0.832684
