19
Iteration:   152charge 0 multiplicity 1
 O         0.442456         0.697720         0.182527
 C        -0.802117         0.947034         0.678740
 C        -1.213438         0.861704         2.113760
 C        -2.530216         1.344840         1.310131
 O        -3.803129         1.461715         1.729108
 C        -2.223334         0.292305         0.264349
 C        -2.552565         0.766610        -1.180630
 C        -2.287398         2.266232        -1.004345
 C        -1.597325         2.275554         0.425113
 H         0.880024         1.491588         0.243878
 H        -1.243176        -0.128995         2.656086
 H        -0.764597         1.615694         2.789505
 H        -3.875316         1.786275         2.584426
 H        -2.445259        -0.700563         0.627245
 H        -1.865972         0.350308        -1.951089
 H        -3.576260         0.429471        -1.459228
 H        -1.635285         2.558073        -1.838061
 H        -3.088841         3.026119        -1.048484
 H        -1.140843         3.132993         0.828044
