19
Iteration:  1671charge 0 multiplicity 1
 O         0.529362         0.807971         0.164301
 C        -0.759526         0.952595         0.700056
 C        -1.240061         0.989199         2.093619
 C        -2.470504         1.290931         1.258282
 O        -3.760750         1.639606         1.666219
 C        -2.156959         0.190283         0.223394
 C        -2.690370         0.664819        -1.117959
 C        -2.328871         2.235214        -0.958910
 C        -1.652019         2.213297         0.444973
 H         1.060802         0.213733         0.634558
 H        -1.207593         0.169471         2.824686
 H        -0.905227         1.895983         2.627929
 H        -4.138375         1.019659         2.184261
 H        -2.419610        -0.835766         0.755063
 H        -2.240013         0.099488        -1.935974
 H        -3.798676         0.484742        -1.037763
 H        -1.492801         2.535349        -1.705016
 H        -3.238526         2.882281        -1.007657
 H        -1.332396         3.119258         0.946796
