19
Iteration:  3757charge 0 multiplicity 1
 O         0.529632         0.798406         0.208362
 C        -0.811573         0.985379         0.639470
 C        -1.340937         0.882587         2.121807
 C        -2.480279         1.388299         1.285315
 O        -3.872810         1.482549         1.971877
 C        -2.208582         0.246862         0.176564
 C        -2.556688         0.819347        -1.152595
 C        -2.214643         2.225704        -1.061432
 C        -1.567399         2.237933         0.324628
 H         0.929636        -0.003452         0.549272
 H        -1.413607        -0.188187         2.473913
 H        -0.999043         1.512239         2.951615
 H        -4.467253         1.667288         1.136007
 H        -2.162318        -0.805140         0.484515
 H        -2.081369         0.144190        -1.839970
 H        -3.585408         0.406098        -1.252337
 H        -1.522650         2.560789        -1.833312
 H        -3.128846         2.893578        -0.999678
 H        -0.915663         3.065323         0.756038
