19
Iteration:  1595
 O         0.343610         0.739046         0.056203
 C        -0.900067         0.923922         0.656846
 C        -1.251010         1.057033         2.173798
 C        -2.554884         1.275781         1.376923
 O        -3.760876         1.660113         1.889819
 C        -2.136399         0.180119         0.208238
 C        -2.457120         0.680806        -1.214147
 C        -2.194558         2.239621        -1.067511
 C        -1.702917         2.223816         0.437666
 H         1.170424         0.983754         0.544700
 H        -1.074689         0.116104         2.668343
 H        -0.829606         1.968525         2.711817
 H        -4.309018         0.887545         2.423328
 H        -2.231559        -0.994277         0.489028
 H        -1.706420         0.177157        -1.858510
 H        -3.429154         0.240515        -1.597301
 H        -1.319451         2.461571        -1.756067
 H        -3.084857         2.852449        -1.255663
 H        -1.155345         3.126053         0.937514
