19
Iteration:   418charge 0 multiplicity 1
 O         0.463102         0.600185         0.105763
 C        -0.792916         1.000676         0.623394
 C        -1.221190         0.974236         2.096056
 C        -2.521080         1.232996         1.305395
 O        -3.851339         1.551569         1.643738
 C        -2.085894         0.223582         0.218826
 C        -2.589273         0.738236        -1.048934
 C        -2.258198         2.246774        -0.925405
 C        -1.718438         2.342231         0.535074
 H         1.196678         1.152368         0.184506
 H        -1.154493         0.069574         2.727753
 H        -0.892318         1.791220         2.776600
 H        -3.760641         2.223591         2.308896
 H        -1.961175        -0.868600         0.432508
 H        -2.107536         0.191642        -1.889896
 H        -3.653040         0.545129        -1.169244
 H        -1.522085         2.546417        -1.697680
 H        -3.233200         2.780259        -1.068294
 H        -1.461419         3.198259         1.049892
