19
Iteration:  4047
 O         0.574904         0.758173         0.279362
 C        -0.824402         1.004128         0.663537
 C        -1.271869         0.990420         2.129513
 C        -2.573456         1.219021         1.298550
 O        -3.809900         1.648604         1.705941
 C        -2.141869         0.195427         0.251986
 C        -2.579421         0.722511        -1.159581
 C        -2.262661         2.200458        -0.989934
 C        -1.639422         2.234481         0.414583
 H         0.349900         0.268431        -0.620005
 H        -0.946395         0.076766         2.647702
 H        -0.868626         1.910616         2.694609
 H        -4.302100         1.011825         2.294986
 H        -2.346521        -0.802829         0.619710
 H        -1.968390         0.235119        -2.012282
 H        -3.651067         0.683153        -1.224271
 H        -1.503267         2.516680        -1.772381
 H        -3.194274         2.788542        -1.103665
 H        -1.286472         3.184763         0.720266
