19
Iteration:  2002
 O         0.513738         0.742457         0.195565
 C        -0.860945         0.962875         0.598895
 C        -1.167799         1.087183         2.226658
 C        -2.522736         1.238905         1.354037
 O        -3.802465         1.640485         1.633553
 C        -2.065727         0.146454         0.204766
 C        -2.641293         0.690183        -1.148197
 C        -2.355308         2.283045        -0.932430
 C        -1.638812         2.227155         0.436610
 H         0.610672        -0.188839         0.469802
 H        -1.177966         0.072007         2.696946
 H        -0.594306         1.987836         2.607809
 H        -4.236801         0.940159         2.022435
 H        -2.055259        -0.976886         0.336640
 H        -1.994351         0.356319        -1.965103
 H        -3.714133         0.623755        -1.249916
 H        -1.674571         2.628225        -1.805706
 H        -3.297801         2.830624        -0.775606
 H        -1.212197         3.151779         0.817382
