19
Iteration:    32
 O         0.414590         0.748875         0.066156
 C        -0.797979         0.940319         0.705294
 C        -1.203748         0.890504         2.146029
 C        -2.608233         1.261747         1.343101
 O        -3.854792         1.444595         1.831940
 C        -2.160490         0.247593         0.145832
 C        -2.550882         0.801711        -1.180295
 C        -2.082023         2.308168        -1.036046
 C        -1.756657         2.275952         0.472515
 H         1.194721         0.562030         0.782439
 H        -0.982088        -0.152740         2.583953
 H        -0.969874         1.565078         2.966876
 H        -3.894241         2.481214         1.942811
 H        -2.270827        -0.781187         0.469645
 H        -2.244300         0.210033        -2.069064
 H        -3.667813         0.785497        -1.059227
 H        -1.168020         2.462497        -1.461958
 H        -2.708000         3.119483        -1.351613
 H        -1.335385         3.105869         0.970723
