19
Iteration:  2923charge 0 multiplicity 1
 O         0.474243         0.700703         0.298591
 C        -0.855904         0.998723         0.637024
 C        -1.275475         0.991920         2.174816
 C        -2.507757         1.285555         1.283710
 O        -3.835458         1.606741         1.786442
 C        -1.956410         0.203856         0.213691
 C        -2.679825         0.690102        -1.077154
 C        -2.219508         2.201037        -1.066518
 C        -1.688057         2.340842         0.333553
 H         0.731841         0.797880        -0.677338
 H        -1.281985        -0.061831         2.389742
 H        -0.778750         1.711898         2.790020
 H        -3.903840         0.899970         2.389540
 H        -1.858108        -0.860076         0.371588
 H        -2.328254         0.277380        -2.050662
 H        -3.745965         0.596249        -0.957180
 H        -1.488349         2.248654        -1.818983
 H        -3.096871         2.857158        -1.298237
 H        -1.276168         3.247666         0.828314
