19
Iteration:   236charge 0 multiplicity 1
 O         0.482954         0.816265         0.150179
 C        -0.868216         0.934672         0.682463
 C        -1.201265         0.902616         2.180535
 C        -2.483724         1.341677         1.329521
 O        -3.848139         1.426901         1.742362
 C        -2.164618         0.250774         0.234036
 C        -2.644551         0.752608        -1.131206
 C        -2.192231         2.260947        -1.012453
 C        -1.613864         2.289673         0.382613
 H         0.844817        -0.138701         0.092268
 H        -1.382756        -0.021835         2.779468
 H        -0.666327         1.619036         2.773445
 H        -4.136709         2.336533         2.215371
 H        -2.415363        -0.845132         0.447573
 H        -1.980548         0.324978        -1.886507
 H        -3.709774         0.487540        -1.349396
 H        -1.418753         2.462132        -1.817613
 H        -3.056482         2.959032        -1.044882
 H        -1.213927         3.302245         0.829886
