19
Iteration:  3527charge 0 multiplicity 1
 O         0.488937         0.791781        -0.000081
 C        -0.807612         0.961739         0.648060
 C        -1.344990         0.843217         2.211562
 C        -2.605864         1.274689         1.315383
 O        -3.800382         1.654156         1.800815
 C        -2.096642         0.192190         0.273098
 C        -2.530745         0.654346        -1.094661
 C        -2.187913         2.252995        -0.949396
 C        -1.651221         2.215566         0.445190
 H         1.200403         1.331719         0.420602
 H        -1.557428        -0.185098         2.505598
 H        -0.958925         1.372633         3.143576
 H        -4.309839         1.987089         1.020609
 H        -2.288192        -0.845584         0.497351
 H        -1.948770         0.261943        -1.899582
 H        -3.531225         0.604481        -1.584745
 H        -1.499804         2.737092        -1.650188
 H        -3.170136         2.826362        -0.896939
 H        -1.251451         3.206860         0.751315
