19
Iteration:  3762
 O         0.550300         0.821565         0.194433
 C        -0.848207         0.956795         0.604981
 C        -1.327202         0.864847         2.123521
 C        -2.509696         1.355652         1.341864
 O        -3.866879         1.503048         1.933058
 C        -2.174495         0.260826         0.196987
 C        -2.560503         0.767566        -1.145629
 C        -2.195425         2.235471        -1.038479
 C        -1.597656         2.270871         0.323413
 H         0.791161        -0.136534         0.495198
 H        -1.337523        -0.138585         2.592179
 H        -0.922319         1.458567         2.961563
 H        -4.375262         1.805412         1.177977
 H        -2.292300        -0.822248         0.393458
 H        -1.974939         0.192499        -1.932929
 H        -3.637537         0.550543        -1.206101
 H        -1.421338         2.497343        -1.782743
 H        -3.060138         2.895307        -1.042786
 H        -1.144339         3.140220         0.738873
