19
Iteration:  2317charge 0 multiplicity 1
 O         0.498341         0.766786         0.240071
 C        -0.805371         0.937837         0.631876
 C        -1.269881         1.026553         2.084111
 C        -2.480705         1.255031         1.270389
 O        -3.740350         1.692597         1.711794
 C        -2.117638         0.117668         0.199934
 C        -2.557076         0.717209        -1.121670
 C        -2.370706         2.245114        -0.875824
 C        -1.703523         2.227543         0.396481
 H         0.757952        -0.232435         0.044225
 H        -1.294563         0.111858         2.697331
 H        -0.843924         1.789521         2.740281
 H        -4.085582         1.132392         2.533298
 H        -2.366038        -0.943138         0.193625
 H        -1.715391         0.584390        -1.783568
 H        -3.468078         0.365411        -1.574524
 H        -1.743014         2.696754        -1.705067
 H        -3.286400         2.813481        -0.800884
 H        -1.420250         3.190363         0.709040
