19
Iteration:  1835
 O         0.533354         0.806394         0.211423
 C        -0.739693         0.843689         0.653595
 C        -1.208266         1.030795         2.146137
 C        -2.496355         1.283757         1.347758
 O        -3.746412         1.685071         1.703802
 C        -2.091558         0.154129         0.213924
 C        -2.591845         0.775114        -1.100389
 C        -2.408195         2.272330        -1.035524
 C        -1.734601         2.173659         0.388443
 H         0.970492        -0.111087         0.495148
 H        -1.348487         0.021769         2.786418
 H        -0.756057         1.852784         2.871979
 H        -4.438354         0.922368         1.901254
 H        -2.320915        -0.919322         0.412569
 H        -2.243039         0.126403        -1.937680
 H        -3.723432         0.469653        -1.015772
 H        -1.691924         2.646126        -1.924448
 H        -3.375964         2.812818        -1.164290
 H        -1.406917         3.100159         0.868825
