19
Iteration:   243
 O         0.547227         0.786875         0.122799
 C        -0.805081         0.966498         0.702323
 C        -1.231193         0.912010         2.239493
 C        -2.499646         1.319607         1.384049
 O        -3.844418         1.464412         1.714678
 C        -2.174374         0.249088         0.237413
 C        -2.631330         0.753672        -1.211999
 C        -2.222102         2.241659        -1.009540
 C        -1.652501         2.257174         0.392520
 H         0.616370        -0.160357         0.038739
 H        -1.304535        -0.044642         2.745257
 H        -0.808481         1.765994         2.840014
 H        -3.977231         2.289468         2.300038
 H        -2.229311        -0.835332         0.469952
 H        -2.199490         0.267420        -2.128115
 H        -3.727095         0.702506        -1.231851
 H        -1.575946         2.673709        -1.711392
 H        -3.078202         2.883620        -1.098000
 H        -1.362079         3.210873         0.869809
