19
Iteration:  1823
 O         0.519440         0.802507         0.181711
 C        -0.835190         0.941527         0.654214
 C        -1.261539         0.910958         2.126904
 C        -2.465331         1.327730         1.293755
 O        -3.758929         1.686467         1.750893
 C        -2.135442         0.186204         0.253195
 C        -2.600525         0.649494        -1.099360
 C        -2.363806         2.211615        -1.001742
 C        -1.683178         2.293054         0.379365
 H         0.971953         0.069274         0.557179
 H        -1.292302        -0.095607         2.702413
 H        -0.785658         1.761527         2.687256
 H        -4.091603         0.910126         2.064887
 H        -2.202296        -0.870244         0.447835
 H        -1.841302         0.397551        -1.872175
 H        -3.622063         0.331108        -1.466877
 H        -1.619426         2.539858        -1.809705
 H        -3.251994         2.875075        -1.021401
 H        -1.292658         3.196166         0.819454
