19
Iteration:  2251charge 0 multiplicity 1
 O         0.335334         0.836318         0.068732
 C        -0.876908         0.950825         0.703264
 C        -1.164450         0.999069         2.205996
 C        -2.523376         1.267293         1.374542
 O        -3.877746         1.597404         1.883547
 C        -2.153890         0.205916         0.198680
 C        -2.513404         0.709775        -1.182564
 C        -2.063944         2.207562        -1.077957
 C        -1.635975         2.255271         0.381529
 H         0.737791         0.044586         0.158119
 H        -1.170404         0.117707         2.855285
 H        -0.835128         1.827429         2.821888
 H        -4.480543         0.880738         1.850702
 H        -2.305206        -0.852973         0.411637
 H        -2.040123         0.029778        -1.904006
 H        -3.608421         0.677117        -1.236846
 H        -1.285730         2.392246        -1.867843
 H        -2.938596         2.836993        -1.068409
 H        -1.214698         3.143005         0.809850
