19
Iteration:  4687
 O         0.594538         0.695483         0.431939
 C        -0.760600         1.090116         0.644055
 C        -1.286699         1.194117         2.101962
 C        -2.548951         1.362754         1.290572
 O        -3.792664         1.503168         1.777572
 C        -2.102730         0.196762         0.273832
 C        -2.649317         0.567821        -1.101036
 C        -2.332991         2.033387        -1.176979
 C        -1.743048         2.288622         0.285504
 H         0.818257         0.728367        -0.445552
 H        -0.961506         0.397399         2.730211
 H        -1.044783         2.216066         2.490153
 H        -3.685240         1.986912         2.640212
 H        -1.992412        -0.863042         0.602270
 H        -2.084124         0.057623        -1.916068
 H        -3.784387         0.262334        -1.124939
 H        -1.658857         2.370659        -1.962995
 H        -3.124367         2.729966        -1.429690
 H        -1.221239         3.298869         0.566682
