19
Iteration:  2236
 O         0.436564         0.901599         0.036813
 C        -0.762341         0.947136         0.739708
 C        -1.197586         0.988288         2.203825
 C        -2.634244         1.303383         1.230499
 O        -3.805342         1.636555         1.887075
 C        -2.216403         0.197121         0.264185
 C        -2.631280         0.733647        -1.186792
 C        -2.051364         2.115900        -1.016139
 C        -1.676794         2.150753         0.451656
 H         0.854842         0.009735         0.397448
 H        -1.184152        -0.020859         2.732319
 H        -0.756723         1.902649         2.652478
 H        -4.355812         0.790187         1.600395
 H        -2.259237        -0.898911         0.439422
 H        -2.188605         0.291061        -2.082141
 H        -3.653731         0.732226        -1.401876
 H        -1.194174         2.427755        -1.578025
 H        -2.799892         2.899403        -1.346876
 H        -1.522904         3.206105         0.873505
