19
Iteration:  2231
 O         0.481899         0.904526         0.042669
 C        -0.774726         0.948808         0.704025
 C        -1.255202         0.964447         2.166576
 C        -2.597172         1.281992         1.260051
 O        -3.775972         1.628952         1.853672
 C        -2.222983         0.164259         0.288719
 C        -2.642978         0.707670        -1.187885
 C        -2.071051         2.177295        -1.014065
 C        -1.717454         2.211549         0.460071
 H         0.901774         0.098477         0.405726
 H        -1.120520         0.072072         2.741989
 H        -0.820818         1.809387         2.732475
 H        -4.397888         0.948574         1.686396
 H        -2.381247        -0.886141         0.576033
 H        -2.131386         0.168627        -2.014240
 H        -3.822853         0.698074        -1.328010
 H        -1.029970         2.191119        -1.524706
 H        -2.757167         2.938863        -1.321173
 H        -1.356849         3.138692         0.882033
