19
Iteration:  4488
 O         0.466037         0.859385         0.209205
 C        -0.812782         1.012745         0.701309
 C        -1.257512         1.067270         2.152597
 C        -2.516513         1.359378         1.277308
 O        -3.785916         1.608898         1.637885
 C        -2.190157         0.149856         0.453868
 C        -2.530979         0.532005        -1.011217
 C        -2.230326         2.036218        -1.153268
 C        -1.667105         2.271047         0.339913
 H         0.548752         0.957173        -0.798327
 H        -1.145646         0.123109         2.751472
 H        -0.880595         1.849394         2.781555
 H        -3.918368         2.254706         2.312826
 H        -2.151335        -0.841209         0.930856
 H        -2.005873        -0.168151        -1.691246
 H        -3.591740         0.256967        -1.211710
 H        -1.566044         2.316409        -2.031965
 H        -3.223352         2.439012        -1.032430
 H        -1.481010         3.352905         0.617997
