19
Iteration:   610
 O         0.611794         0.730787         0.201574
 C        -0.814952         1.005032         0.606282
 C        -1.247383         0.947061         2.135307
 C        -2.594886         1.243011         1.350664
 O        -3.856316         1.460290         1.896598
 C        -2.306083         0.276894         0.237398
 C        -2.547520         0.715453        -1.241295
 C        -2.287959         2.291772        -0.998248
 C        -1.541073         2.362059         0.257046
 H         0.584995        -0.325714         0.161883
 H        -1.308556        -0.053753         2.578258
 H        -0.896155         1.789379         2.823700
 H        -3.722259         1.898903         2.811731
 H        -2.320096        -0.746077         0.554459
 H        -1.792737         0.222779        -1.830552
 H        -3.584597         0.591091        -1.528030
 H        -1.728050         2.642312        -1.792510
 H        -3.227582         2.684873        -0.854216
 H        -1.013849         3.318170         0.644371
