19
Iteration:  1475
 O         0.352757         0.661898         0.058848
 C        -0.839730         1.063586         0.671802
 C        -1.288032         0.889321         2.121749
 C        -2.551761         1.337128         1.295120
 O        -3.789702         1.673478         1.906979
 C        -2.060307         0.222237         0.230953
 C        -2.440981         0.598645        -1.137862
 C        -2.246160         2.218600        -1.020176
 C        -1.682159         2.314012         0.391849
 H         0.992435         1.324978         0.411556
 H        -1.398528        -0.075488         2.522348
 H        -0.866738         1.679217         2.745058
 H        -4.054495         0.899311         2.356975
 H        -2.149422        -0.847505         0.594695
 H        -1.821944         0.107217        -1.909945
 H        -3.435677         0.361714        -1.481044
 H        -1.515544         2.509967        -1.772819
 H        -3.134527         2.806608        -1.136524
 H        -1.319380         3.321903         0.881498
