19
Iteration:  3526
 O         0.497263         0.795205        -0.003199
 C        -0.815596         0.958006         0.656948
 C        -1.344945         0.844204         2.205991
 C        -2.604157         1.287428         1.328228
 O        -3.795910         1.647346         1.798689
 C        -2.103017         0.183999         0.278549
 C        -2.537798         0.658133        -1.100327
 C        -2.194510         2.258288        -0.949693
 C        -1.649331         2.215156         0.440924
 H         1.225494         1.339563         0.469159
 H        -1.555658        -0.176548         2.460665
 H        -0.935713         1.368868         3.134327
 H        -4.356039         2.002829         0.998149
 H        -2.318392        -0.861925         0.504608
 H        -1.940749         0.246473        -1.882776
 H        -3.487851         0.591374        -1.617591
 H        -1.480485         2.727667        -1.661498
 H        -3.161901         2.807841        -0.907567
 H        -1.216862         3.180321         0.757712
