19
Iteration:  3960charge 0 multiplicity 1
 O         0.339216         0.847891         0.017801
 C        -0.817490         0.942077         0.718620
 C        -1.395025         0.981240         2.285151
 C        -2.506639         1.293152         1.330152
 O        -3.767367         1.557897         1.774106
 C        -2.048206         0.148164         0.208673
 C        -2.537515         0.683600        -1.117163
 C        -2.108688         2.230689        -0.985457
 C        -1.597084         2.242467         0.466684
 H         0.514062        -0.130388        -0.321966
 H        -1.493035         0.097718         2.914154
 H        -0.967216         1.935197         2.743723
 H        -4.323246         1.899532         0.971612
 H        -2.235083        -0.884527         0.459012
 H        -2.144996         0.063696        -1.976602
 H        -3.616426         0.663920        -1.202414
 H        -1.429960         2.783377        -1.687754
 H        -2.987092         2.878808        -1.145484
 H        -1.333958         3.118328         1.009162
