19
Iteration:  3344charge 0 multiplicity 1
 O         0.489533         0.666186         0.270834
 C        -0.833993         0.853974         0.615011
 C        -1.283147         1.028283         2.123360
 C        -2.443339         1.329270         1.313896
 O        -3.816703         1.468958         1.948363
 C        -2.194013         0.171614         0.227087
 C        -2.505650         0.711987        -1.232486
 C        -2.294178         2.277808        -1.091515
 C        -1.660865         2.354766         0.419936
 H         0.773232         1.398083        -0.183538
 H        -1.446142         0.056086         2.568468
 H        -0.718120         1.663868         2.764561
 H        -4.339223         2.005407         1.242188
 H        -2.392646        -0.826436         0.599052
 H        -1.724112         0.458163        -1.965286
 H        -3.518504         0.548737        -1.601992
 H        -1.564472         2.714892        -1.749960
 H        -3.129768         3.006922        -1.218044
 H        -1.122814         3.237546         0.857340
