19
Iteration:  4979
 O         0.569445         0.898776         0.229305
 C        -0.761764         0.954212         0.674589
 C        -1.271401         1.155317         2.128581
 C        -2.526884         1.343021         1.315700
 O        -3.860157         1.647220         1.765802
 C        -2.087982         0.153264         0.404066
 C        -2.610864         0.579471        -1.054090
 C        -2.269338         2.056904        -1.107334
 C        -1.682520         2.200754         0.268028
 H         0.608543        -0.093897        -0.109393
 H        -1.213836         0.368676         2.897143
 H        -0.848443         2.114323         2.608640
 H        -4.430535         1.045801         1.256507
 H        -2.188161        -0.788340         0.938650
 H        -2.003088         0.022111        -1.852287
 H        -3.604482         0.408202        -1.337184
 H        -1.481913         2.326890        -1.914952
 H        -3.299431         2.581074        -1.207677
 H        -1.352756         3.150037         0.560708
