19
Iteration:  1861
 O         0.520747         0.782442         0.213399
 C        -0.720038         1.039561         0.631876
 C        -1.234977         1.020048         2.106887
 C        -2.492165         1.272567         1.313135
 O        -3.794239         1.612260         1.640611
 C        -2.152177         0.172789         0.188731
 C        -2.779584         0.699552        -1.061001
 C        -2.288553         2.196629        -0.909889
 C        -1.557426         2.265554         0.426619
 H         0.647737        -0.243703         0.350741
 H        -1.137334         0.130022         2.749869
 H        -0.945201         1.938586         2.733253
 H        -4.304247         0.764487         1.831729
 H        -1.990276        -0.919822         0.471369
 H        -2.245759         0.246386        -1.901279
 H        -3.830832         0.445344        -1.060659
 H        -1.662025         2.296582        -1.810743
 H        -3.091742         2.944924        -0.993517
 H        -1.358955         3.267272         0.912868
