19
Iteration:  3872charge 0 multiplicity 1
 O         0.566462         0.658118         0.204341
 C        -0.797480         0.882852         0.675183
 C        -1.334913         1.007991         2.106504
 C        -2.541452         1.327409         1.248529
 O        -3.861464         1.570516         1.855777
 C        -2.022825         0.216053         0.168652
 C        -2.566470         0.808813        -1.228646
 C        -2.265386         2.235132        -0.984486
 C        -1.757143         2.277019         0.401990
 H         0.957869         0.046153         0.900666
 H        -1.316170         0.069828         2.658561
 H        -0.882774         1.936297         2.586886
 H        -3.470281         1.485164         2.815661
 H        -2.233803        -0.838125         0.272407
 H        -2.297195         0.367055        -2.210514
 H        -3.598912         0.672249        -1.432798
 H        -1.443781         2.717363        -1.594195
 H        -3.170593         2.820402        -1.107452
 H        -1.397660         3.174367         0.800473
