19
Iteration:  3524charge 0 multiplicity 1
 O         0.512308         0.802494        -0.005803
 C        -0.828294         0.951014         0.675242
 C        -1.345179         0.847373         2.195107
 C        -2.590286         1.311734         1.350446
 O        -3.793498         1.636284         1.792554
 C        -2.119181         0.169495         0.286363
 C        -2.547709         0.670422        -1.112738
 C        -2.207746         2.265082        -0.950938
 C        -1.645472         2.215830         0.433915
 H         1.217626         1.324823         0.537832
 H        -1.541414        -0.189792         2.395218
 H        -0.903266         1.364263         3.080224
 H        -4.403473         2.006502         1.012662
 H        -2.361573        -0.895159         0.524204
 H        -1.892880         0.205951        -1.866357
 H        -3.446638         0.553425        -1.655107
 H        -1.461008         2.698386        -1.680491
 H        -3.142370         2.782017        -0.940285
 H        -1.159014         3.129246         0.786088
