19
Iteration:  1551
 O         0.445750         0.652635         0.166046
 C        -0.789641         1.009554         0.660891
 C        -1.236246         0.947570         2.217351
 C        -2.434738         1.297245         1.306396
 O        -3.729257         1.605887         1.609305
 C        -2.078917         0.239157         0.284439
 C        -2.732130         0.698117        -1.028530
 C        -2.339244         2.260101        -1.042790
 C        -1.659020         2.266274         0.417225
 H         0.827144         1.596229         0.070638
 H        -1.212349        -0.049903         2.650164
 H        -0.897423         1.702925         2.998602
 H        -4.133076         0.764019         2.109487
 H        -2.076280        -0.943393         0.491121
 H        -2.133074         0.365266        -1.906490
 H        -3.797340         0.387829        -1.262531
 H        -1.476965         2.300690        -1.754906
 H        -3.084546         3.051558        -1.192881
 H        -1.239317         3.244986         0.915472
