19
Iteration:  2234
 O         0.459030         0.899196         0.039436
 C        -0.760054         0.945236         0.727103
 C        -1.222622         0.977226         2.190421
 C        -2.627004         1.296054         1.236837
 O        -3.792237         1.633270         1.874150
 C        -2.220172         0.184144         0.278390
 C        -2.636508         0.723215        -1.189345
 C        -2.059489         2.140056        -1.013724
 C        -1.694780         2.172064         0.456786
 H         0.819428         0.126551         0.376493
 H        -1.152946         0.022615         2.723492
 H        -0.766956         1.882199         2.680577
 H        -4.343537         0.866271         1.629274
 H        -2.305850        -0.904129         0.495064
 H        -2.162456         0.250370        -2.063610
 H        -3.756212         0.718638        -1.380851
 H        -1.111114         2.331868        -1.547002
 H        -2.787071         2.914288        -1.340135
 H        -1.455143         3.199925         0.882512
