19
Iteration:  1644charge 0 multiplicity 1
 O         0.431435         0.749099         0.092704
 C        -0.873306         1.036362         0.584262
 C        -1.293142         0.846246         2.172747
 C        -2.455922         1.346597         1.419875
 O        -3.848598         1.649437         1.845637
 C        -2.058583         0.254018         0.230233
 C        -2.493184         0.661824        -1.140679
 C        -2.290727         2.190605        -1.081547
 C        -1.650845         2.300215         0.328776
 H         0.897767         0.448145         0.857428
 H        -1.452019        -0.175385         2.715450
 H        -0.897408         1.589436         2.918965
 H        -4.107306         1.094277         2.473829
 H        -2.028793        -0.681512         0.592070
 H        -1.864237         0.070874        -1.837460
 H        -3.502522         0.345761        -1.292003
 H        -1.537656         2.470424        -1.746604
 H        -3.243847         2.715471        -1.189192
 H        -1.203413         3.299153         0.629509
