19
Iteration:  4748charge 0 multiplicity 1
 O         0.493402         0.852367         0.093678
 C        -0.858495         1.059848         0.718409
 C        -1.260370         1.109627         2.205236
 C        -2.526862         1.332936         1.280836
 O        -3.865068         1.722545         1.646250
 C        -2.033594         0.138135         0.432704
 C        -2.496800         0.495445        -1.114145
 C        -2.184364         1.995788        -1.067547
 C        -1.797280         2.213485         0.388643
 H         0.409162         0.147012        -0.607944
 H        -0.881441         0.275643         2.914817
 H        -0.918499         2.046246         2.634959
 H        -4.108134         1.606405         2.613198
 H        -1.981806        -0.878313         0.841498
 H        -1.911474         0.084415        -1.978349
 H        -3.548746         0.526522        -1.181326
 H        -1.350663         2.404047        -1.775080
 H        -3.212755         2.434820        -0.949695
 H        -1.656127         3.193018         0.821477
