19
Iteration:  1658
 O         0.482835         0.778643         0.116128
 C        -0.771484         1.000204         0.670140
 C        -1.278586         0.926306         2.205192
 C        -2.510253         1.329417         1.274937
 O        -3.748394         1.636926         1.719447
 C        -2.142156         0.226332         0.303061
 C        -2.618970         0.670395        -1.090551
 C        -2.285907         2.178699        -1.029130
 C        -1.667038         2.291820         0.361536
 H         1.062490         0.321372         0.834639
 H        -1.335584        -0.219928         2.367692
 H        -0.875819         1.559705         2.961538
 H        -3.941745         0.870305         2.432328
 H        -2.265818        -0.860078         0.480215
 H        -2.075760         0.246175        -1.930711
 H        -3.689992         0.502588        -1.340887
 H        -1.721147         2.588318        -1.922254
 H        -3.214423         2.832470        -1.029058
 H        -1.397196         3.216600         0.736721
