19
Iteration:  4430charge 0 multiplicity 1
 O         0.488589         0.753185         0.289575
 C        -0.836523         1.008292         0.742136
 C        -1.278647         1.265911         2.138926
 C        -2.545787         1.354324         1.240638
 O        -3.699469         1.532763         1.852210
 C        -2.144127         0.156551         0.292721
 C        -2.563300         0.523889        -1.139243
 C        -2.224709         2.046205        -1.083259
 C        -1.738136         2.234313         0.317691
 H         0.671999         0.887814        -0.698296
 H        -1.176452         0.373490         2.754682
 H        -1.084013         2.255082         2.537295
 H        -4.199860         2.351322         1.597073
 H        -2.232786        -0.905042         0.548385
 H        -2.105996        -0.259887        -1.868467
 H        -3.613161         0.285398        -1.097624
 H        -1.431887         2.519615        -1.861196
 H        -2.977830         2.745875        -1.454572
 H        -1.495711         3.262838         0.483714
