19
Iteration:  3623charge 0 multiplicity 1
 O         0.442101         0.618461         0.204304
 C        -0.870686         1.002569         0.666176
 C        -1.240076         0.927378         2.113149
 C        -2.496049         1.245828         1.230659
 O        -3.758926         1.565218         1.928981
 C        -2.097433         0.225269         0.172321
 C        -2.555144         0.763848        -1.174167
 C        -2.165176         2.292734        -1.060505
 C        -1.791484         2.334244         0.461572
 H         1.220988         1.069034         0.705934
 H        -1.338429        -0.022695         2.560484
 H        -0.951595         1.708802         2.880607
 H        -4.643184         1.491224         1.345480
 H        -2.169152        -0.877752         0.245468
 H        -2.121105         0.192117        -2.022052
 H        -3.639045         0.530390        -1.226192
 H        -1.321864         2.486456        -1.789393
 H        -2.986252         2.918955        -1.373267
 H        -1.386862         3.231684         0.945253
