19
Iteration:   231
 O         0.423488         0.836193         0.169757
 C        -0.846641         0.901233         0.641685
 C        -1.213242         0.908006         2.122374
 C        -2.500872         1.360600         1.295519
 O        -3.847634         1.407370         1.762493
 C        -2.174627         0.247569         0.239786
 C        -2.627653         0.759673        -1.061462
 C        -2.184063         2.271674        -1.023583
 C        -1.586678         2.298361         0.411700
 H         0.830621        -0.034316         0.217095
 H        -1.339223        -0.036946         2.632589
 H        -0.599780         1.619874         2.755439
 H        -4.019844         2.234650         2.074011
 H        -2.437857        -0.748032         0.515084
 H        -1.913366         0.265340        -1.768882
 H        -3.603397         0.450428        -1.413722
 H        -1.434124         2.364008        -1.766298
 H        -2.968434         3.010111        -1.103504
 H        -1.127906         3.185837         0.738052
