19
Iteration:   338charge 0 multiplicity 1
 O         0.378044         0.697165         0.245892
 C        -0.858109         0.949197         0.711544
 C        -1.246560         0.908696         2.174364
 C        -2.544363         1.268874         1.320524
 O        -3.733806         1.517251         1.879588
 C        -2.090690         0.265691         0.143958
 C        -2.518427         0.724285        -1.253017
 C        -2.181317         2.237880        -1.078794
 C        -1.764611         2.261245         0.433931
 H         0.621957         1.165217        -0.522562
 H        -0.998532         0.001848         2.665003
 H        -0.843161         1.818638         2.586778
 H        -3.700370         2.400589         2.191541
 H        -2.140633        -0.746935         0.406285
 H        -2.229433         0.128934        -2.106967
 H        -3.567347         0.642002        -1.042060
 H        -1.369881         2.695356        -1.772102
 H        -3.004114         2.979161        -1.296580
 H        -1.629572         3.252733         0.770861
