19
Iteration:  2893charge 0 multiplicity 1
 O         0.537913         0.836308         0.202648
 C        -0.807205         0.916379         0.663797
 C        -1.215990         0.957907         2.199042
 C        -2.530968         1.277785         1.281267
 O        -3.770915         1.685038         1.762262
 C        -2.186216         0.220801         0.281682
 C        -2.622525         0.626304        -1.123182
 C        -2.238677         2.184905        -1.022937
 C        -1.727682         2.255070         0.410254
 H         0.659869         0.667025        -0.745543
 H        -1.159342        -0.082981         2.599358
 H        -0.706907         1.678428         2.896265
 H        -4.377297         0.914541         1.764454
 H        -2.235156        -0.823261         0.603770
 H        -2.035511         0.265633        -1.956244
 H        -3.669061         0.448099        -1.551191
 H        -1.372824         2.369697        -1.682079
 H        -3.013432         2.883594        -1.222409
 H        -1.408321         3.250554         0.893593
