19
Iteration:  2393charge 0 multiplicity 1
 O         0.489262         0.817397         0.062418
 C        -0.785163         0.997437         0.715878
 C        -1.242455         0.975368         2.243084
 C        -2.541754         1.208114         1.359993
 O        -3.850587         1.582607         1.825209
 C        -2.246228         0.196681         0.257695
 C        -2.667217         0.800757        -1.177615
 C        -2.088147         2.187212        -1.055593
 C        -1.649148         2.240003         0.369195
 H         0.984545         0.245981         0.571829
 H        -0.830525         0.043336         2.791726
 H        -1.000855         1.991487         2.672817
 H        -4.237312         0.812234         2.128731
 H        -2.391617        -0.878319         0.333023
 H        -2.077077         0.308797        -1.952291
 H        -3.665590         0.728371        -1.420896
 H        -1.267053         2.010418        -1.799158
 H        -2.717917         3.017384        -1.313424
 H        -1.378298         3.234674         0.543696
