19
Iteration:   974
 O         0.469077         0.733435         0.023304
 C        -0.774100         0.925490         0.647523
 C        -1.283313         0.993137         2.065575
 C        -2.600254         1.286133         1.346264
 O        -3.842109         1.611346         1.920071
 C        -2.193527         0.253625         0.167597
 C        -2.441640         0.784920        -1.181073
 C        -2.180881         2.215411        -0.900696
 C        -1.687962         2.222615         0.465104
 H         0.674763        -0.313997         0.006763
 H        -1.320427         0.058163         2.668060
 H        -1.001405         1.953095         2.547070
 H        -4.229533         0.986376         2.488262
 H        -2.205638        -0.799400         0.251076
 H        -1.653016         0.274264        -1.743235
 H        -3.367522         0.651993        -1.575332
 H        -1.377399         2.668718        -1.570163
 H        -3.145819         2.724587        -1.159403
 H        -1.466198         3.284386         0.977586
