19
Iteration:  2990
 O         0.485935         0.700697         0.217585
 C        -0.822633         1.039109         0.657689
 C        -1.286230         0.890534         2.204238
 C        -2.509341         1.338297         1.269207
 O        -3.746773         1.540152         1.816587
 C        -2.077223         0.174938         0.182487
 C        -2.520891         0.699861        -1.127922
 C        -2.263010         2.196154        -1.034072
 C        -1.762168         2.335245         0.428241
 H         0.413845         0.753012        -0.730183
 H        -1.523082        -0.102559         2.588311
 H        -0.891051         1.618748         2.892500
 H        -3.971544         2.536460         1.611805
 H        -2.073800        -0.825293         0.591717
 H        -2.041883         0.051436        -1.865957
 H        -3.609215         0.473369        -1.228618
 H        -1.518447         2.592363        -1.680713
 H        -3.265894         2.703718        -1.065045
 H        -1.440893         3.422379         0.698138
