19
Iteration:   559
 O         0.530332         0.763918         0.111191
 C        -0.746877         1.015355         0.695189
 C        -1.171633         0.935600         2.182183
 C        -2.500717         1.258232         1.309358
 O        -3.891359         1.462457         1.641299
 C        -2.146728         0.280816         0.272019
 C        -2.704505         0.771206        -1.057814
 C        -2.192655         2.211357        -1.005283
 C        -1.648105         2.266644         0.471222
 H         0.355368        -0.047409        -0.387779
 H        -0.952243        -0.017045         2.638277
 H        -0.820720         1.766955         2.770331
 H        -4.045813         2.389176         2.117960
 H        -2.323372        -0.775840         0.525514
 H        -2.267288         0.150868        -1.874506
 H        -3.792221         0.718136        -1.060499
 H        -1.421139         2.391993        -1.863086
 H        -3.126872         2.856509        -1.022986
 H        -1.489711         3.244633         1.019983
