19
Iteration:  3830
 O         0.449851         0.815205         0.047241
 C        -0.793719         0.988249         0.707026
 C        -1.258783         0.877932         2.171806
 C        -2.532826         1.366811         1.325321
 O        -3.855925         1.470055         1.727798
 C        -2.243108         0.251214         0.244736
 C        -2.511982         0.735474        -1.091319
 C        -2.152649         2.219652        -0.958837
 C        -1.605167         2.253616         0.442002
 H         0.868524         0.011821         0.056964
 H        -1.381178        -0.112347         2.529908
 H        -0.827052         1.544717         2.956741
 H        -4.256669         2.293798         1.937190
 H        -2.636748        -0.689627         0.639453
 H        -1.931115         0.194595        -1.871725
 H        -3.554267         0.488638        -1.344195
 H        -1.385656         2.468323        -1.720472
 H        -2.994882         2.852911        -1.015255
 H        -1.224670         3.241714         0.648158
