19
Iteration:  2449charge 0 multiplicity 1
 O         0.524816         0.742125         0.131544
 C        -0.757248         1.008470         0.676468
 C        -1.265505         0.922658         2.206160
 C        -2.563812         1.284260         1.389172
 O        -3.869591         1.673518         1.767171
 C        -2.033875         0.276035         0.225123
 C        -2.611146         0.671358        -1.173070
 C        -2.265839         2.238807        -1.058135
 C        -1.688671         2.262164         0.436860
 H         0.580032        -0.171809        -0.117743
 H        -1.173393        -0.192955         2.526376
 H        -0.781724         1.641861         2.949076
 H        -4.309373         0.955274         2.365426
 H        -2.002273        -0.797390         0.418058
 H        -2.030991         0.175205        -1.933213
 H        -3.578984         0.322425        -1.381100
 H        -1.559475         2.515367        -1.904569
 H        -3.079415         2.953405        -1.216171
 H        -1.314148         3.171446         0.793768
