19
Iteration:  3274charge 0 multiplicity 1
 O         0.518538         0.831213         0.187406
 C        -0.877381         0.993313         0.663421
 C        -1.290073         0.902020         2.108295
 C        -2.484075         1.255761         1.377385
 O        -3.827609         1.537558         1.795198
 C        -2.250111         0.196324         0.258492
 C        -2.649125         0.757618        -1.147810
 C        -2.143291         2.233093        -0.952001
 C        -1.500959         2.250954         0.420334
 H         0.811531         0.586519        -0.657798
 H        -1.338268        -0.017800         2.715441
 H        -0.923527         1.800173         2.659140
 H        -4.457402         1.298934         0.964894
 H        -2.601617        -0.785854         0.608807
 H        -1.914807         0.244119        -1.776144
 H        -3.658921         0.618000        -1.582094
 H        -1.533223         2.458035        -1.847737
 H        -3.057728         2.872792        -1.069612
 H        -1.036243         3.131691         0.849086
