19
Iteration:  3010charge 0 multiplicity 1
 O         0.483213         0.710735         0.145693
 C        -0.749191         1.047475         0.682317
 C        -1.292405         0.926208         2.161711
 C        -2.555872         1.227597         1.341426
 O        -3.811709         1.647478         1.817170
 C        -2.100104         0.248851         0.274380
 C        -2.507981         0.671214        -1.178461
 C        -2.258601         2.215684        -0.983897
 C        -1.696260         2.259455         0.447758
 H         0.220458         0.657992        -0.833666
 H        -1.062389        -0.120770         2.457913
 H        -1.002961         1.630710         2.960069
 H        -4.237656         1.932801         1.032672
 H        -2.094595        -0.810042         0.566331
 H        -1.833831         0.233974        -1.973140
 H        -3.513986         0.303681        -1.383351
 H        -1.530325         2.511546        -1.805979
 H        -3.222455         2.839090        -1.149867
 H        -1.536435         3.107025         1.102373
