19
Iteration:  1683charge 0 multiplicity 1
 O         0.560315         0.848488         0.201205
 C        -0.807842         0.886582         0.527662
 C        -1.195667         1.050322         2.218916
 C        -2.501860         1.229229         1.336209
 O        -3.801736         1.677528         1.638975
 C        -2.107464         0.149608         0.217622
 C        -2.725687         0.726473        -1.062074
 C        -2.286138         2.192541        -0.928535
 C        -1.651031         2.190231         0.398393
 H         0.821107        -0.010901         0.628440
 H        -1.105100         0.243956         2.896158
 H        -0.820081         2.034015         2.607889
 H        -4.334269         0.870353         2.060736
 H        -2.143611        -1.048927         0.320720
 H        -2.381859         0.307491        -2.026674
 H        -3.839109         0.645041        -1.146984
 H        -1.625047         2.551051        -1.801385
 H        -3.134629         2.899705        -0.960037
 H        -1.260141         3.174205         0.783285
