19
Iteration:  1641charge 0 multiplicity 1
 O         0.415768         0.745612         0.079084
 C        -0.878675         1.028361         0.601585
 C        -1.296641         0.842301         2.151527
 C        -2.467575         1.335875         1.447635
 O        -3.863055         1.669602         1.863384
 C        -2.039433         0.280089         0.226727
 C        -2.465155         0.631736        -1.163115
 C        -2.292785         2.194187        -1.083519
 C        -1.659623         2.305159         0.341692
 H         0.946691         0.435663         0.922591
 H        -1.446339        -0.086168         2.598407
 H        -0.844184         1.699056         2.793798
 H        -4.099770         0.970864         2.608024
 H        -2.070105        -0.817798         0.600612
 H        -1.853619         0.068876        -1.920317
 H        -3.494292         0.285758        -1.339831
 H        -1.480447         2.518106        -1.735572
 H        -3.190261         2.738881        -1.264418
 H        -1.117473         3.315059         0.687550
