19
Iteration:  2331
 O         0.594328         0.820697         0.213928
 C        -0.776990         0.913547         0.680072
 C        -1.262282         0.911014         2.146741
 C        -2.531889         1.236824         1.239759
 O        -3.721051         1.724550         1.700994
 C        -2.241319         0.196309         0.221346
 C        -2.521138         0.696103        -1.209322
 C        -2.386007         2.228596        -0.954692
 C        -1.680353         2.235420         0.445037
 H         0.779630        -0.063565         0.194818
 H        -1.106103         0.056618         2.720722
 H        -1.023017         1.859601         2.646240
 H        -3.950911         1.150550         2.411296
 H        -2.365183        -0.785835         0.695081
 H        -2.058600         0.120400        -1.991748
 H        -3.683971         0.544782        -1.360218
 H        -1.933702         2.848982        -1.744186
 H        -3.392024         2.623154        -0.828812
 H        -1.428443         3.091515         1.091861
