19
Iteration:  1603
 O         0.344731         0.745022         0.045927
 C        -0.864780         0.955624         0.641016
 C        -1.307658         1.063934         2.136085
 C        -2.523913         1.212918         1.398508
 O        -3.658421         1.645953         1.876555
 C        -2.250623         0.176899         0.255027
 C        -2.403259         0.655513        -1.198389
 C        -2.193812         2.246115        -1.077140
 C        -1.753934         2.223763         0.442008
 H         1.004860         0.892492         0.719487
 H        -1.092267         0.287836         2.948735
 H        -0.980868         1.938758         2.600987
 H        -4.268005         0.996134         2.456465
 H        -2.376902        -0.909161         0.328302
 H        -1.603615         0.291714        -1.818939
 H        -3.385098         0.427147        -1.640187
 H        -1.285318         2.586689        -1.670322
 H        -3.068399         2.919170        -1.380463
 H        -1.354340         3.070614         0.835294
