19
Iteration:  4124charge 0 multiplicity 1
 O         0.459112         0.678124         0.236262
 C        -0.810017         0.925850         0.673306
 C        -1.217587         1.065511         2.074567
 C        -2.553243         1.316578         1.311213
 O        -3.842111         1.542327         1.801554
 C        -2.112322         0.238638         0.278141
 C        -2.513807         0.711493        -1.165156
 C        -2.193120         2.140075        -1.090963
 C        -1.741448         2.219294         0.397769
 H         0.832856         1.486088         0.089807
 H        -1.299000         0.228194         2.788534
 H        -0.955970         2.071906         2.597712
 H        -3.826243         1.850463         2.708141
 H        -2.332841        -0.830246         0.424714
 H        -1.928698         0.102259        -2.002484
 H        -3.609792         0.581745        -1.302227
 H        -1.451364         2.665165        -1.769914
 H        -3.019886         2.842053        -1.316308
 H        -1.582943         3.225421         0.739557
