19
Iteration:  1933
 O         0.380630         0.882976         0.082395
 C        -0.849984         0.937952         0.696315
 C        -1.241581         0.975975         2.203969
 C        -2.554033         1.260432         1.279150
 O        -3.720660         1.698527         1.910238
 C        -2.250901         0.121766         0.221922
 C        -2.435248         0.665777        -1.221501
 C        -2.109605         2.187580        -1.088788
 C        -1.793876         2.260293         0.399636
 H         0.936872        -0.003985         0.164195
 H        -1.420839         0.007682         2.679906
 H        -0.742489         1.765659         2.770177
 H        -4.033899         0.971223         2.559191
 H        -2.476255        -0.915545         0.472603
 H        -1.692779         0.085709        -1.808862
 H        -3.534082         0.575410        -1.490644
 H        -1.189608         2.614074        -1.603718
 H        -3.009524         2.774682        -1.291288
 H        -1.577023         3.091578         1.082276
