19
Iteration:  4912
 O         0.439801         0.782370         0.214620
 C        -0.823589         1.026468         0.676361
 C        -1.261199         1.180934         2.137675
 C        -2.515301         1.363753         1.369659
 O        -3.852506         1.627430         1.719022
 C        -2.097749         0.175025         0.371372
 C        -2.495863         0.497567        -1.149094
 C        -2.213233         2.008749        -1.098793
 C        -1.711496         2.261058         0.348053
 H         0.502955         0.556215        -0.676556
 H        -1.134175         0.447166         2.998138
 H        -0.899171         2.186605         2.509719
 H        -3.976592         1.412004         2.655452
 H        -2.210705        -0.864252         0.693214
 H        -1.678869         0.105971        -1.846157
 H        -3.496070         0.200137        -1.422644
 H        -1.528328         2.412822        -1.954444
 H        -3.185659         2.722279        -1.086007
 H        -1.371178         3.276386         0.638947
