19
Iteration:  2709charge 0 multiplicity 1
 O         0.498538         0.717307         0.222710
 C        -0.909659         0.930789         0.624660
 C        -1.254029         1.036909         2.225766
 C        -2.472690         1.364113         1.366268
 O        -3.821769         1.607044         1.783871
 C        -2.134489         0.145905         0.232796
 C        -2.618117         0.659729        -1.197068
 C        -2.221366         2.207495        -1.049116
 C        -1.626205         2.304799         0.416028
 H         0.351974         1.071763        -0.732131
 H        -1.182634         0.136117         2.797099
 H        -0.840898         1.866592         2.780005
 H        -4.025162         0.690256         2.213850
 H        -2.103119        -0.942482         0.291885
 H        -1.863515         0.179694        -1.841510
 H        -3.652536         0.524538        -1.481690
 H        -1.513862         2.585312        -1.855761
 H        -3.083885         2.856286        -1.082064
 H        -1.076783         3.220822         0.689961
