19
Iteration:  1381
 O         0.509953         0.683961         0.253199
 C        -0.783579         1.001962         0.556485
 C        -1.243348         0.983088         2.129411
 C        -2.463053         1.294289         1.327125
 O        -3.749881         1.613632         1.694537
 C        -2.066347         0.197964         0.221111
 C        -2.743299         0.743982        -1.042288
 C        -2.316574         2.230974        -0.972031
 C        -1.662480         2.216380         0.368834
 H         1.065250         1.416809         0.408248
 H        -1.290802         0.011927         2.664612
 H        -0.770807         1.818098         2.737865
 H        -4.308917         0.739810         1.726541
 H        -2.106043        -0.849491         0.489441
 H        -2.538454         0.195640        -2.043114
 H        -3.826337         0.551426        -0.876003
 H        -1.549528         2.503191        -1.762058
 H        -3.230333         2.888718        -1.073751
 H        -1.254840         3.112291         0.807598
