19
Iteration:  2517
 O         0.517986         0.647356         0.253235
 C        -0.827031         1.007080         0.637051
 C        -1.269623         0.908517         2.032427
 C        -2.524701         1.374706         1.252008
 O        -3.808421         1.677805         1.792812
 C        -2.035661         0.260082         0.226715
 C        -2.544811         0.598069        -1.103770
 C        -2.308677         2.219655        -0.997998
 C        -1.713161         2.326865         0.468096
 H         0.501649         0.691580        -0.704018
 H        -1.270232        -0.141042         2.451700
 H        -0.868377         1.717911         2.688386
 H        -4.135787         0.933917         2.171366
 H        -2.087571        -0.785246         0.614632
 H        -2.009423         0.235453        -1.893830
 H        -3.513341         0.086449        -1.262587
 H        -1.587459         2.726039        -1.636924
 H        -3.206840         2.898616        -1.050206
 H        -1.487249         3.273368         1.023530
