19
Iteration:  1575
 O         0.435023         0.665936         0.057734
 C        -0.752320         1.029494         0.659510
 C        -1.236915         0.872478         2.119705
 C        -2.529539         1.389445         1.310001
 O        -3.884861         1.652088         1.820776
 C        -2.116025         0.253551         0.289007
 C        -2.491751         0.651330        -1.110812
 C        -2.212813         2.155987        -1.009678
 C        -1.708605         2.295917         0.396841
 H         1.074691         1.258387         0.350474
 H        -1.325230        -0.025581         2.664234
 H        -0.737810         1.627149         2.886502
 H        -4.199021         0.770711         2.266581
 H        -2.158240        -0.877246         0.531942
 H        -2.120692         0.184018        -2.069659
 H        -3.610477         0.648820        -1.162073
 H        -1.485009         2.579431        -1.691741
 H        -3.137621         2.665994        -1.030949
 H        -1.528580         3.475977         0.647300
