19
Iteration:   284
 O         0.437698         0.761137         0.244053
 C        -0.838019         0.943672         0.646538
 C        -1.227138         0.911360         2.137964
 C        -2.454226         1.387640         1.341046
 O        -3.801908         1.531407         1.659832
 C        -2.090210         0.199942         0.229776
 C        -2.558818         0.730891        -1.170956
 C        -2.355133         2.255309        -0.955646
 C        -1.636516         2.275558         0.444088
 H         0.557085         0.051164        -0.395335
 H        -1.267567        -0.065726         2.610966
 H        -0.595982         1.593672         2.745625
 H        -3.959258         1.837602         2.537426
 H        -2.144833        -0.826264         0.490469
 H        -1.987693         0.278000        -2.002325
 H        -3.612960         0.522255        -1.300250
 H        -1.693498         2.717837        -1.754263
 H        -3.342002         2.773636        -0.874086
 H        -1.204804         3.160610         0.714300
