19
Iteration:  1930charge 0 multiplicity 1
 O         0.396142         0.875764         0.076443
 C        -0.865004         0.944106         0.689013
 C        -1.251390         0.985581         2.173670
 C        -2.546109         1.247979         1.277515
 O        -3.710548         1.685194         1.905845
 C        -2.259130         0.108635         0.245605
 C        -2.451598         0.655551        -1.202878
 C        -2.083150         2.202702        -1.080062
 C        -1.789634         2.264256         0.405129
 H         0.871634         0.076471         0.153268
 H        -1.412780         0.086751         2.676551
 H        -0.892611         1.779869         2.726083
 H        -4.001340         1.053741         2.468122
 H        -2.463532        -0.925554         0.465680
 H        -1.740289         0.069855        -1.785243
 H        -3.472832         0.648753        -1.539472
 H        -1.255694         2.575256        -1.516425
 H        -2.961575         2.810063        -1.236179
 H        -1.688790         3.128874         1.079638
