19
Iteration:    75charge 0 multiplicity 1
 O         0.556281         0.814308         0.162730
 C        -0.749060         0.907182         0.676492
 C        -1.251630         0.850280         2.091535
 C        -2.550890         1.305371         1.294880
 O        -3.907669         1.456408         1.833269
 C        -2.152557         0.266199         0.226887
 C        -2.588103         0.790039        -1.178934
 C        -2.201169         2.307492        -0.996515
 C        -1.651367         2.258024         0.437736
 H         0.618228        -0.203810        -0.078198
 H        -1.144530        -0.165546         2.634373
 H        -0.868677         1.564726         2.823634
 H        -4.181178         2.473547         1.915887
 H        -2.519360        -0.742529         0.509213
 H        -2.016684         0.283371        -1.979978
 H        -3.704197         0.669024        -1.201050
 H        -1.447268         2.709416        -1.655393
 H        -3.118560         2.898149        -1.098075
 H        -1.254940         3.138685         0.878621
