19
Iteration:  1829
 O         0.527196         0.797344         0.200813
 C        -0.793790         0.895538         0.660330
 C        -1.245380         0.955203         2.130807
 C        -2.450420         1.315371         1.332591
 O        -3.753891         1.692089         1.726912
 C        -2.130275         0.161828         0.226552
 C        -2.589511         0.716482        -1.073496
 C        -2.393563         2.248904        -1.036887
 C        -1.718179         2.247148         0.372559
 H         1.059755         0.048021         0.478614
 H        -1.343846         0.104446         2.705953
 H        -0.794003         1.724344         2.721436
 H        -4.260975         0.841982         2.013274
 H        -2.234462        -0.941792         0.379643
 H        -2.050481         0.265432        -1.926016
 H        -3.553923         0.315837        -1.294016
 H        -1.725675         2.516848        -1.789497
 H        -3.281037         2.872757        -1.127361
 H        -1.330482         3.122640         0.951272
