19
Iteration:   294
 O         0.525240         0.759835         0.236607
 C        -0.811870         0.962625         0.650847
 C        -1.165142         0.905842         2.179190
 C        -2.464671         1.341421         1.369725
 O        -3.845622         1.508566         1.692408
 C        -2.193672         0.287772         0.247276
 C        -2.578182         0.728711        -1.201291
 C        -2.305059         2.218396        -0.985401
 C        -1.643790         2.272028         0.376093
 H         0.566519         0.186749        -0.475712
 H        -1.233743        -0.135527         2.445441
 H        -0.869475         1.624145         2.943961
 H        -3.911995         1.791097         2.524341
 H        -2.714623        -0.551250         0.609806
 H        -1.874766         0.205654        -1.849073
 H        -3.591409         0.464055        -1.492733
 H        -1.861726         2.958000        -1.756578
 H        -3.338248         2.682826        -0.900176
 H        -1.089995         3.052245         0.757791
