19
Iteration:  1192charge 0 multiplicity 1
 O         0.470507         0.727871         0.160988
 C        -0.782109         0.912213         0.694062
 C        -1.248275         0.961688         2.195419
 C        -2.440407         1.246143         1.249805
 O        -3.674298         1.630173         1.656652
 C        -2.142532         0.164011         0.256982
 C        -2.765967         0.820139        -1.132780
 C        -2.266193         2.268885        -0.946379
 C        -1.675736         2.174180         0.413893
 H         0.974458         1.485447         0.411125
 H        -1.358963         0.094834         2.739145
 H        -0.922749         1.705029         2.930976
 H        -4.274175         0.786991         1.898092
 H        -2.180069        -0.853063         0.483115
 H        -2.280025         0.269628        -2.034227
 H        -3.872015         0.723115        -1.216446
 H        -1.363539         2.554915        -1.606568
 H        -3.167304         2.942810        -1.129301
 H        -1.433126         3.165535         0.972226
