19
Iteration:  1188charge 0 multiplicity 1
 O         0.466917         0.705253         0.169036
 C        -0.814100         0.933879         0.668299
 C        -1.271550         0.939583         2.184910
 C        -2.430782         1.255842         1.239569
 O        -3.679465         1.628735         1.686850
 C        -2.128273         0.167849         0.243199
 C        -2.721565         0.805777        -1.133094
 C        -2.246489         2.282845        -0.978671
 C        -1.701409         2.214226         0.434118
 H         0.994036         1.597257         0.279153
 H        -1.371014        -0.028734         2.764187
 H        -0.855317         1.675905         2.969476
 H        -4.166551         0.878089         1.887438
 H        -2.230644        -0.912996         0.614605
 H        -2.282411         0.265018        -1.940047
 H        -3.835320         0.631164        -1.079822
 H        -1.495156         2.566102        -1.655316
 H        -3.109446         2.874293        -1.114048
 H        -1.470698         3.082511         0.981365
