19
Iteration:  4364
 O         0.530514         0.796742         0.229786
 C        -0.814901         0.951947         0.658310
 C        -1.266162         1.182681         2.255168
 C        -2.496650         1.400597         1.342182
 O        -3.767150         1.684985         1.700639
 C        -2.035457         0.123864         0.327023
 C        -2.549694         0.535275        -1.065344
 C        -2.330201         2.101020        -1.089416
 C        -1.759912         2.202853         0.306171
 H         0.478748         0.388980        -0.587081
 H        -1.256212         0.333220         2.906876
 H        -1.037623         2.190174         2.646880
 H        -4.358679         0.938819         1.627960
 H        -2.086438        -0.959447         0.551422
 H        -2.281322        -0.040422        -2.007691
 H        -3.597337         0.283468        -1.130039
 H        -1.473350         2.490371        -1.900645
 H        -3.215879         2.763799        -1.162664
 H        -1.341239         3.107181         0.675987
