19
Iteration:   461
 O         0.441563         0.678204         0.170484
 C        -0.872708         1.020005         0.629549
 C        -1.297914         0.980768         2.143438
 C        -2.504371         1.302533         1.254317
 O        -3.676615         1.448126         1.827477
 C        -2.264470         0.263947         0.234327
 C        -2.531296         0.724524        -1.160469
 C        -2.285125         2.235472        -1.046746
 C        -1.586948         2.311825         0.363979
 H         0.977749         0.589548         1.014862
 H        -1.308323         0.013022         2.598569
 H        -0.983036         1.707579         2.894482
 H        -3.557132         1.862600         2.802288
 H        -2.665801        -0.691592         0.635897
 H        -1.737619         0.355367        -1.847336
 H        -3.342197         0.417328        -1.767793
 H        -1.856823         2.761888        -1.982276
 H        -3.230437         2.847679        -0.892967
 H        -1.420116         3.212618         0.855142
