19
Iteration:   759charge 0 multiplicity 1
 O         0.447000         0.752245         0.296617
 C        -0.851244         0.948725         0.613218
 C        -1.239223         0.887352         2.135623
 C        -2.459872         1.309344         1.271926
 O        -3.704181         1.528917         1.759931
 C        -2.225915         0.247055         0.235925
 C        -2.568995         0.763979        -1.158076
 C        -2.277605         2.304315        -1.020251
 C        -1.651642         2.269303         0.439473
 H         0.433799         0.384702        -0.660833
 H        -1.215089        -0.099789         2.590016
 H        -0.888151         1.543270         2.840123
 H        -3.611329         1.296156         2.614093
 H        -2.435424        -0.888214         0.485469
 H        -2.020847         0.393722        -2.063604
 H        -3.621962         0.399182        -1.512505
 H        -1.784531         2.621966        -1.997479
 H        -3.123176         3.112667        -1.034910
 H        -1.320068         3.153550         0.935561
