19
Iteration:  4273charge 0 multiplicity 1
 O         0.527338         0.706557         0.367066
 C        -0.834801         0.960204         0.672605
 C        -1.177163         1.210397         2.075946
 C        -2.529964         1.313530         1.301529
 O        -3.781223         1.563108         1.917857
 C        -2.182132         0.169545         0.256400
 C        -2.548133         0.612407        -1.103280
 C        -2.258999         2.162137        -1.134685
 C        -1.743759         2.233283         0.271531
 H         0.684805         1.154085        -0.521701
 H        -1.067514         0.427811         2.831347
 H        -0.868046         2.209984         2.426938
 H        -4.456246         1.495938         1.172365
 H        -2.226066        -0.908879         0.498610
 H        -1.989061         0.089117        -1.862901
 H        -3.571574         0.266518        -1.385044
 H        -1.425593         2.230366        -1.870437
 H        -3.216762         2.717512        -1.274586
 H        -1.497623         3.234335         0.674840
