19
Iteration:  1968charge 0 multiplicity 1
 O         0.487643         0.808609         0.117146
 C        -0.809950         1.008839         0.622824
 C        -1.317690         0.926737         2.120231
 C        -2.535653         1.329351         1.274767
 O        -3.806183         1.698662         1.833612
 C        -2.158214         0.190151         0.254749
 C        -2.454863         0.617026        -1.128360
 C        -2.256549         2.218509        -0.963009
 C        -1.658730         2.295087         0.397607
 H         0.683468        -0.172978         0.412580
 H        -1.468603        -0.147366         2.464873
 H        -0.698808         1.355503         2.953294
 H        -4.082751         0.955594         2.424957
 H        -2.199270        -0.895899         0.541326
 H        -1.851255         0.155963        -1.930701
 H        -3.478814         0.311447        -1.512754
 H        -1.874214         2.694527        -1.954484
 H        -3.306514         2.536129        -1.028041
 H        -1.323261         3.255536         0.777584
