19
Iteration:  4919charge 0 multiplicity 1
 O         0.512637         0.769998         0.231985
 C        -0.837301         1.016018         0.708685
 C        -1.213224         1.187104         2.150066
 C        -2.539342         1.359606         1.268391
 O        -3.900090         1.648737         1.774046
 C        -2.100937         0.227411         0.345593
 C        -2.497229         0.470349        -1.153625
 C        -2.231642         2.036380        -1.084467
 C        -1.738460         2.273049         0.332707
 H         0.419542         0.354319        -0.592297
 H        -1.191752         0.359420         2.889151
 H        -0.780165         2.116297         2.424406
 H        -3.873697         1.181773         2.616953
 H        -1.986724        -0.817504         0.697281
 H        -1.785619        -0.103814        -1.769339
 H        -3.591521         0.415308        -1.494605
 H        -1.609316         2.463852        -1.801361
 H        -3.165890         2.422912        -1.364361
 H        -1.340360         3.249310         0.802007
