19
Iteration:  2064charge 0 multiplicity 1
 O         0.436533         0.893117         0.118234
 C        -0.847974         0.941210         0.711389
 C        -1.240842         0.909533         2.092976
 C        -2.580282         1.274348         1.248005
 O        -3.805965         1.623568         1.856482
 C        -2.134106         0.201668         0.237270
 C        -2.606195         0.684356        -1.096673
 C        -2.107076         2.181258        -1.081729
 C        -1.644629         2.314403         0.409410
 H         0.872241         0.088157         0.267741
 H        -1.303424         0.008514         2.694318
 H        -0.740573         1.626290         2.708437
 H        -4.375077         0.990146         2.158460
 H        -2.261917        -0.828487         0.614320
 H        -2.091554         0.039032        -1.906443
 H        -3.780413         0.581540        -1.070307
 H        -1.204996         2.232434        -1.768734
 H        -2.956129         2.891958        -1.214029
 H        -1.314331         3.209887         0.977643
