19
Iteration:   523charge 0 multiplicity 1
 O         0.418034         0.907813         0.086714
 C        -0.868928         0.944009         0.645311
 C        -1.276632         0.891982         2.126275
 C        -2.515574         1.317975         1.278578
 O        -3.769917         1.488392         1.737796
 C        -2.145116         0.235101         0.268279
 C        -2.607913         0.703308        -1.029972
 C        -2.110754         2.174582        -0.975448
 C        -1.645975         2.247985         0.470104
 H         0.525094         0.046094        -0.400723
 H        -1.388638        -0.090034         2.585536
 H        -0.916885         1.747748         2.742719
 H        -3.855009         2.543495         1.915589
 H        -2.342844        -0.702645         0.655631
 H        -2.082151         0.135996        -1.801320
 H        -3.699805         0.649783        -1.121597
 H        -1.357052         2.372333        -1.753824
 H        -2.955867         2.795626        -1.222355
 H        -1.244944         3.156199         1.118290
