19
Iteration:  2740charge 0 multiplicity 1
 O         0.561638         0.845961         0.189708
 C        -0.835113         0.961632         0.678348
 C        -1.244133         0.867851         2.143568
 C        -2.565513         1.248265         1.316117
 O        -3.764978         1.730861         1.725731
 C        -2.150669         0.136902         0.281554
 C        -2.661368         0.678129        -1.063794
 C        -2.167145         2.172090        -1.058427
 C        -1.713199         2.268672         0.405077
 H         0.507354         1.255071        -0.662335
 H        -1.213837        -0.145371         2.530070
 H        -0.988062         1.648526         2.843259
 H        -4.193517         0.905693         2.093498
 H        -2.154271        -0.943785         0.488229
 H        -2.163424         0.052848        -1.700600
 H        -3.777942         0.592407        -1.105928
 H        -1.321755         2.464729        -1.745013
 H        -2.976784         2.843931        -1.366188
 H        -1.412710         3.275142         0.861059
