19
Iteration:  3541charge 0 multiplicity 1
 O         0.381656         0.704649         0.025180
 C        -0.790874         1.017165         0.705429
 C        -1.377662         0.827567         2.208001
 C        -2.478060         1.229378         1.306966
 O        -3.815527         1.671259         1.802722
 C        -2.027669         0.204259         0.195987
 C        -2.494270         0.740928        -1.155635
 C        -2.205499         2.202567        -0.948053
 C        -1.659878         2.260201         0.493898
 H         0.951568         1.529091         0.156600
 H        -1.280880        -0.187432         2.701563
 H        -1.144304         1.710200         2.776659
 H        -4.396774         2.087652         1.070684
 H        -1.973215        -0.861452         0.426335
 H        -2.051493         0.157362        -2.013501
 H        -3.584946         0.411626        -1.049292
 H        -1.494514         2.505410        -1.707107
 H        -3.145049         2.830385        -1.075052
 H        -1.529318         3.185709         1.097610
