19
Iteration:  3586
 O         0.511542         0.609406         0.203046
 C        -0.752521         0.962701         0.658246
 C        -1.291954         1.023884         2.125098
 C        -2.612050         1.329819         1.281547
 O        -3.842023         1.365472         1.937885
 C        -2.280128         0.296406         0.201765
 C        -2.575593         0.759362        -1.154040
 C        -2.181638         2.270628        -1.084570
 C        -1.542458         2.317718         0.411824
 H         1.070270         1.497561         0.245705
 H        -1.232672        -0.068386         2.547720
 H        -0.811425         1.720702         2.780897
 H        -4.497642         1.925980         1.310150
 H        -2.374589        -0.764583         0.528404
 H        -1.759526         0.391733        -1.896489
 H        -3.678046         0.537405        -1.445835
 H        -1.619078         2.631572        -1.949809
 H        -3.066333         2.982173        -1.104524
 H        -0.908864         3.178814         0.769357
