19
Iteration:   860charge 0 multiplicity 1
 O         0.580011         0.737913         0.087889
 C        -0.760727         0.994319         0.646953
 C        -1.255621         0.880834         2.137041
 C        -2.528103         1.297689         1.313312
 O        -3.859493         1.568650         1.850472
 C        -2.127012         0.250187         0.201572
 C        -2.665120         0.803700        -1.080184
 C        -2.237951         2.270634        -1.045321
 C        -1.642629         2.277282         0.414319
 H         0.845011         0.054778         0.804384
 H        -1.207784        -0.109849         2.426078
 H        -0.854249         1.565810         2.866886
 H        -4.336855         0.648083         1.893750
 H        -2.366513        -0.807627         0.459112
 H        -2.204583         0.320542        -1.934123
 H        -3.768223         0.778709        -1.130306
 H        -1.416529         2.437415        -1.776322
 H        -3.169858         2.923227        -1.246507
 H        -1.436388         3.171793         0.876633
