19
Iteration:   775
 O         0.455471         0.772300         0.154189
 C        -0.857221         0.960941         0.675318
 C        -1.314299         0.848979         2.092712
 C        -2.502863         1.319068         1.322115
 O        -3.775930         1.599694         1.828342
 C        -2.139068         0.246402         0.213911
 C        -2.507705         0.731533        -1.149249
 C        -2.260708         2.269675        -0.964971
 C        -1.615961         2.274586         0.384525
 H         0.442645         0.113345        -0.502452
 H        -1.395494        -0.186888         2.520009
 H        -0.817203         1.572248         2.895383
 H        -4.041627         1.016183         2.548300
 H        -2.239055        -0.742869         0.479705
 H        -1.838164         0.221909        -1.859844
 H        -3.490757         0.634926        -1.486320
 H        -1.599018         2.828253        -1.610759
 H        -3.300121         2.647968        -0.959685
 H        -1.217152         3.310360         0.672961
