19
Iteration:  4389charge 0 multiplicity 1
 O         0.534432         0.715197         0.370323
 C        -0.776204         1.134866         0.659823
 C        -1.185418         1.082955         2.116408
 C        -2.546476         1.422121         1.249519
 O        -3.785917         1.554448         1.810427
 C        -2.113792         0.254398         0.347489
 C        -2.603673         0.536975        -1.026358
 C        -2.304434         2.025535        -1.136515
 C        -1.691613         2.343337         0.237900
 H         0.430993         0.263130        -0.526925
 H        -1.065771         0.086160         2.649052
 H        -0.903288         1.955343         2.664377
 H        -4.529544         1.270352         1.239251
 H        -2.090154        -0.764281         0.775890
 H        -2.169797         0.029888        -1.912502
 H        -3.648884         0.263976        -1.305106
 H        -1.653282         2.184540        -2.058227
 H        -3.223962         2.609387        -1.120305
 H        -1.453702         3.366043         0.647964
