19
Iteration:  1596
 O         0.339880         0.740620         0.055369
 C        -0.896194         0.925701         0.652726
 C        -1.264981         1.058629         2.166049
 C        -2.551108         1.266994         1.385535
 O        -3.744072         1.655260         1.887689
 C        -2.152866         0.178908         0.212026
 C        -2.450566         0.677668        -1.212081
 C        -2.195889         2.246736        -1.074032
 C        -1.710608         2.220005         0.440713
 H         1.200139         0.977545         0.575506
 H        -1.062320         0.161883         2.697285
 H        -0.828716         1.989338         2.723834
 H        -4.306138         0.925101         2.418804
 H        -2.251510        -0.992960         0.466863
 H        -1.679673         0.182061        -1.863535
 H        -3.420179         0.246820        -1.601811
 H        -1.324335         2.459622        -1.733531
 H        -3.064073         2.845707        -1.267939
 H        -1.139440         3.153260         0.949201
