19
Iteration:  2671charge 0 multiplicity 1
 O         0.474196         0.541827         0.283178
 C        -0.784172         1.053674         0.628195
 C        -1.243640         1.013844         2.091602
 C        -2.531045         1.345079         1.298477
 O        -3.795410         1.604262         1.811801
 C        -2.089229         0.236233         0.189304
 C        -2.476261         0.635055        -1.149978
 C        -2.323563         2.240552        -0.979436
 C        -1.789660         2.404689         0.382100
 H         0.679218         0.376722        -0.635176
 H        -1.140844        -0.016204         2.551496
 H        -0.775261         1.805782         2.724261
 H        -4.076197         0.889973         2.287382
 H        -1.866594        -0.768387         0.588085
 H        -1.766386         0.292921        -1.907579
 H        -3.573945         0.446374        -1.417653
 H        -1.786078         2.649165        -1.820717
 H        -3.343345         2.729090        -0.991372
 H        -1.360951         3.283907         0.893241
