19
Iteration:  2208
 O         0.423366         0.908076         0.171434
 C        -0.835118         0.972619         0.605133
 C        -1.265008         0.834464         2.156678
 C        -2.519498         1.302429         1.332051
 O        -3.772892         1.647814         1.774786
 C        -2.118248         0.239415         0.268315
 C        -2.657057         0.730819        -1.045412
 C        -2.161746         2.167680        -1.098787
 C        -1.617364         2.244070         0.378039
 H         0.748566         0.085958         0.570770
 H        -1.316148        -0.187028         2.561549
 H        -0.773484         1.479968         2.890237
 H        -4.208536         0.757239         1.858454
 H        -2.079298        -0.846600         0.360128
 H        -2.224333         0.136652        -1.881351
 H        -3.828379         0.666912        -1.045593
 H        -1.266776         2.350145        -1.804302
 H        -3.046103         2.762875        -1.269261
 H        -1.323522         3.193115         0.774977
