19
Iteration:  4185charge 0 multiplicity 1
 O         0.456221         0.848459         0.129946
 C        -0.815320         0.971412         0.646487
 C        -1.235287         1.084611         2.119091
 C        -2.536189         1.300471         1.338664
 O        -3.833666         1.559126         1.799873
 C        -2.149378         0.138915         0.343703
 C        -2.537349         0.608410        -1.132527
 C        -2.219987         2.180248        -1.056140
 C        -1.646154         2.232373         0.377955
 H         0.866899         0.130902         0.556723
 H        -1.193232         0.213220         2.786700
 H        -1.057622         1.943084         2.722540
 H        -4.312909         2.123863         1.137426
 H        -2.229219        -0.861882         0.793922
 H        -1.904242         0.131871        -1.821748
 H        -3.620821         0.419951        -1.260572
 H        -1.386528         2.351494        -1.719893
 H        -3.117975         2.778124        -1.187496
 H        -1.328779         3.225479         0.777211
