19
Iteration:  2349charge 0 multiplicity 1
 O         0.513606         0.864004         0.205941
 C        -0.794026         0.961415         0.657335
 C        -1.257992         0.835547         2.192898
 C        -2.503943         1.332782         1.385831
 O        -3.810464         1.733201         1.746546
 C        -2.087727         0.175741         0.175302
 C        -2.651419         0.688690        -1.168665
 C        -2.329600         2.186246        -1.017091
 C        -1.612585         2.215804         0.366543
 H         0.926432         0.081961         0.385382
 H        -1.442147        -0.248226         2.447867
 H        -0.741407         1.508396         2.908140
 H        -4.280441         1.116200         2.296811
 H        -2.212580        -0.904384         0.382686
 H        -1.969356         0.336711        -1.948020
 H        -3.606931         0.370316        -1.455903
 H        -1.623172         2.643522        -1.765540
 H        -3.225826         2.802113        -0.929198
 H        -1.224867         3.172083         0.639963
