19
Iteration:   251
 O         0.558688         0.747087         0.116715
 C        -0.704395         1.008762         0.678739
 C        -1.297816         0.962473         2.233049
 C        -2.521552         1.255226         1.361039
 O        -3.839565         1.519317         1.697518
 C        -2.131118         0.231816         0.238478
 C        -2.606332         0.769739        -1.223107
 C        -2.271824         2.240224        -1.009132
 C        -1.690079         2.210588         0.478426
 H         0.475462        -0.150053        -0.044548
 H        -1.127520        -0.026605         2.654117
 H        -1.008201         1.783291         2.951762
 H        -3.739275         2.206387         2.353732
 H        -2.151940        -0.771697         0.507930
 H        -2.421811         0.166553        -2.117286
 H        -3.689844         0.819732        -1.202782
 H        -1.524469         2.773438        -1.683051
 H        -3.229617         2.830328        -1.036698
 H        -1.405671         3.130720         0.803374
