19
Iteration:  4723charge 0 multiplicity 1
 O         0.523361         0.875057         0.242607
 C        -0.868727         1.017673         0.685010
 C        -1.256490         1.069969         2.164049
 C        -2.474411         1.376269         1.323023
 O        -3.807338         1.620313         1.659949
 C        -2.093423         0.212555         0.366924
 C        -2.529782         0.511655        -1.008892
 C        -2.309133         2.056442        -1.144952
 C        -1.723139         2.246113         0.285788
 H         0.467552         0.383463        -0.508157
 H        -1.252733         0.140334         2.777708
 H        -0.935638         1.946211         2.777509
 H        -4.097630         1.730824         2.590595
 H        -2.155361        -0.835851         0.623995
 H        -1.875183         0.029055        -1.721159
 H        -3.570193         0.240167        -1.220129
 H        -1.557305         2.182413        -1.857152
 H        -3.337177         2.529771        -1.255627
 H        -1.078844         3.023274         0.608202
