19
Iteration:  2491
 O         0.517594         0.809823         0.233458
 C        -0.844610         0.948828         0.654672
 C        -1.253014         0.864329         2.242341
 C        -2.450169         1.250727         1.377873
 O        -3.757046         1.730286         1.707621
 C        -2.175966         0.199974         0.250586
 C        -2.566826         0.700248        -1.192504
 C        -2.392379         2.234261        -1.009604
 C        -1.611326         2.187414         0.338305
 H         0.467436         0.374744        -0.579546
 H        -1.243790        -0.078671         2.889682
 H        -0.969369         1.851518         2.661305
 H        -4.203822         1.155445         2.222866
 H        -2.138956        -0.848602         0.507034
 H        -1.684566         0.390680        -1.924187
 H        -3.414804         0.266726        -1.645523
 H        -1.760179         2.831654        -1.724142
 H        -3.277402         2.816097        -0.792410
 H        -1.406866         3.149878         0.699819
