19
Iteration:  4862charge 0 multiplicity 1
 O         0.511499         0.745061         0.214498
 C        -0.781294         1.061551         0.660207
 C        -1.269873         1.114992         2.188299
 C        -2.510700         1.399857         1.331979
 O        -3.877309         1.579217         1.731010
 C        -2.076994         0.206198         0.341552
 C        -2.566783         0.476458        -1.072317
 C        -2.328498         2.025244        -1.060986
 C        -1.700177         2.258358         0.266287
 H         1.083821         1.653743         0.083573
 H        -1.149791         0.153753         2.582791
 H        -0.814415         1.785373         2.932925
 H        -3.903711         2.559587         1.523179
 H        -2.014230        -0.872814         0.592308
 H        -1.997935        -0.064101        -1.816370
 H        -3.677923         0.254885        -1.232164
 H        -1.506648         2.249111        -1.670597
 H        -3.163475         2.554629        -1.270626
 H        -1.196932         3.191900         0.598822
