19
Iteration:  4160charge 0 multiplicity 1
 O         0.455587         0.752895         0.146564
 C        -0.802997         1.006043         0.705387
 C        -1.320051         0.993508         2.151140
 C        -2.535734         1.367860         1.308271
 O        -3.782642         1.597727         1.922618
 C        -2.073873         0.301265         0.249107
 C        -2.544189         0.630064        -1.176486
 C        -2.209095         2.102045        -1.151263
 C        -1.705069         2.297178         0.336984
 H         1.085005         0.710828         0.805743
 H        -1.513389        -0.016613         2.623177
 H        -1.035451         1.698720         2.969718
 H        -4.395371         0.907670         1.663493
 H        -2.123289        -0.715441         0.693019
 H        -1.978770         0.010363        -1.910008
 H        -3.629276         0.326456        -1.240093
 H        -1.359263         2.227016        -1.812805
 H        -3.114587         2.706130        -1.332990
 H        -1.408104         3.342127         0.664548
