19
Iteration:  1050charge 0 multiplicity 1
 O         0.567330         0.833211         0.095376
 C        -0.781976         0.846943         0.683055
 C        -1.250275         0.932642         2.173360
 C        -2.500455         1.197619         1.319995
 O        -3.808053         1.669091         1.693759
 C        -2.138413         0.178812         0.189743
 C        -2.743961         0.870771        -1.081913
 C        -2.234090         2.255910        -0.955529
 C        -1.612591         2.126383         0.430437
 H         0.987408         0.307599         0.720149
 H        -1.097722         0.145475         2.878394
 H        -0.850128         1.867470         2.689210
 H        -4.545497         0.939814         1.619003
 H        -2.291166        -0.849460         0.323024
 H        -2.423309         0.371526        -2.017268
 H        -3.796325         0.769516        -0.957835
 H        -1.472645         2.543315        -1.773728
 H        -3.110571         2.989598        -0.858509
 H        -1.399846         3.147118         0.942746
