19
Iteration:  4169charge 0 multiplicity 1
 O         0.503643         0.781351         0.107096
 C        -0.833884         1.012592         0.706412
 C        -1.332796         1.028053         2.208936
 C        -2.528246         1.353518         1.255305
 O        -3.809377         1.594444         1.916889
 C        -2.115082         0.259420         0.248942
 C        -2.526461         0.606406        -1.088429
 C        -2.156325         2.110777        -1.091042
 C        -1.747722         2.268976         0.316122
 H         1.036851         0.476763         0.788325
 H        -1.389324        -0.015672         2.590531
 H        -0.654607         1.718860         2.819910
 H        -4.411364         1.244919         1.258426
 H        -2.213091        -0.826944         0.453629
 H        -1.917701         0.000170        -1.881812
 H        -3.638361         0.548478        -1.198605
 H        -1.570218         2.479925        -1.980173
 H        -3.115570         2.655447        -1.289239
 H        -1.347597         3.209501         0.694147
