19
Iteration:  2890
 O         0.518651         0.856188         0.196417
 C        -0.817864         0.894410         0.634860
 C        -1.214137         0.981450         2.213018
 C        -2.541309         1.313402         1.287051
 O        -3.763316         1.677071         1.759018
 C        -2.205369         0.171838         0.259454
 C        -2.612927         0.634612        -1.095685
 C        -2.247751         2.177455        -1.025159
 C        -1.682616         2.254113         0.425484
 H         0.712048         0.643557        -0.704294
 H        -1.177524        -0.021938         2.646245
 H        -0.673207         1.582352         2.928181
 H        -4.483971         0.902920         1.767028
 H        -2.234720        -0.860586         0.567023
 H        -1.942790         0.369138        -1.938353
 H        -3.553171         0.412938        -1.585163
 H        -1.452774         2.330222        -1.685711
 H        -3.018448         2.955741        -1.255682
 H        -1.395159         3.209347         0.902641
