19
Iteration:  4297
 O         0.513791         0.712398         0.276633
 C        -0.825057         1.085011         0.667995
 C        -1.321813         1.142308         2.165010
 C        -2.562263         1.364524         1.284052
 O        -3.803463         1.517341         1.915404
 C        -2.093172         0.219170         0.296937
 C        -2.549944         0.530347        -1.169168
 C        -2.235990         2.110896        -1.142194
 C        -1.670705         2.230857         0.278522
 H         0.761007         1.173081        -0.639870
 H        -1.229876         0.230554         2.703490
 H        -0.973059         2.033313         2.750640
 H        -4.123164         2.443759         1.830303
 H        -2.139985        -0.770081         0.775681
 H        -2.048476        -0.143396        -1.917005
 H        -3.591226         0.250009        -1.335057
 H        -1.365920         2.336838        -1.880690
 H        -3.247840         2.537365        -1.143529
 H        -1.297791         3.201581         0.530059
