19
Iteration:  1834
 O         0.531442         0.804673         0.210705
 C        -0.744665         0.849722         0.654065
 C        -1.213391         1.021735         2.142657
 C        -2.487922         1.290559         1.349039
 O        -3.748695         1.683479         1.707807
 C        -2.100269         0.150708         0.214293
 C        -2.586897         0.770889        -1.094046
 C        -2.408010         2.270270        -1.037672
 C        -1.733264         2.185411         0.385904
 H         0.990088        -0.080296         0.488057
 H        -1.358396         0.036358         2.779598
 H        -0.771239         1.808102         2.842158
 H        -4.386457         0.951010         1.907368
 H        -2.302203        -0.895681         0.400179
 H        -2.220645         0.136601        -1.930313
 H        -3.701801         0.424804        -1.057614
 H        -1.704922         2.619140        -1.905401
 H        -3.362084         2.824464        -1.170837
 H        -1.403826         3.080413         0.885102
