19
Iteration:  1560
 O         0.493979         0.629101         0.104045
 C        -0.805478         1.041656         0.662914
 C        -1.281478         0.923188         2.154755
 C        -2.484158         1.314154         1.342582
 O        -3.767257         1.616550         1.675760
 C        -2.073445         0.293253         0.286877
 C        -2.657873         0.664291        -1.042147
 C        -2.288782         2.217837        -1.038696
 C        -1.695098         2.330921         0.431548
 H         1.041526         1.499608         0.099969
 H        -1.223599        -0.206228         2.438168
 H        -0.928387         1.454210         2.990430
 H        -4.167436         0.775089         2.181445
 H        -2.220986        -0.791049         0.686738
 H        -1.981306         0.106901        -1.693787
 H        -3.742944         0.420082        -1.168535
 H        -1.524646         2.437629        -1.862774
 H        -3.137857         2.926704        -1.328801
 H        -1.304835         3.199848         0.909497
