19
Iteration:   758charge 0 multiplicity 1
 O         0.457761         0.745282         0.298248
 C        -0.851714         0.940920         0.619349
 C        -1.229994         0.891194         2.129129
 C        -2.459939         1.310937         1.273455
 O        -3.711460         1.527440         1.760354
 C        -2.223215         0.242786         0.224931
 C        -2.578586         0.764074        -1.158089
 C        -2.283548         2.307894        -1.019180
 C        -1.653974         2.270522         0.443638
 H         0.440161         0.430514        -0.623151
 H        -1.191403        -0.090784         2.615025
 H        -0.908860         1.560551         2.841069
 H        -3.625949         1.331748         2.649714
 H        -2.432741        -0.892408         0.472809
 H        -2.028334         0.427585        -2.090962
 H        -3.634432         0.408570        -1.524825
 H        -1.775839         2.583133        -1.995482
 H        -3.089013         3.097258        -1.060854
 H        -1.318491         3.215797         0.934843
