19
Iteration:  2232charge 0 multiplicity 1
 O         0.476325         0.901137         0.041911
 C        -0.767853         0.946914         0.711921
 C        -1.245493         0.967581         2.174786
 C        -2.609022         1.286831         1.250983
 O        -3.781546         1.629098         1.859950
 C        -2.222435         0.170304         0.286900
 C        -2.640400         0.712560        -1.189192
 C        -2.068313         2.166099        -1.013412
 C        -1.710919         2.198814         0.459743
 H         0.854532         0.140938         0.384702
 H        -1.128245         0.065665         2.729921
 H        -0.798868         1.835846         2.715932
 H        -4.358882         0.943560         1.672007
 H        -2.357230        -0.893987         0.551184
 H        -2.138020         0.195227        -2.033465
 H        -3.822052         0.705068        -1.347342
 H        -1.042554         2.233389        -1.531695
 H        -2.765373         2.926619        -1.324689
 H        -1.387403         3.159314         0.881831
