19
Iteration:  2563
 O         0.513198         0.740032         0.191167
 C        -0.835393         0.867045         0.635014
 C        -1.241904         1.067557         2.131477
 C        -2.513663         1.337550         1.278254
 O        -3.890364         1.514868         1.831506
 C        -2.180701         0.218410         0.267170
 C        -2.632677         0.693645        -1.105680
 C        -2.138608         2.238999        -0.994994
 C        -1.628863         2.272487         0.372337
 H         0.840302         1.140018        -0.556809
 H        -1.316587         0.289978         2.859554
 H        -0.722879         1.978918         2.439787
 H        -4.158825         0.746019         2.203532
 H        -2.298337        -0.878220         0.526164
 H        -2.274642         0.149141        -1.895396
 H        -3.749539         0.694695        -1.364120
 H        -1.313473         2.296532        -1.731115
 H        -2.847751         3.080395        -1.270487
 H        -1.064114         3.246268         0.739178
