19
Iteration:  3682charge 0 multiplicity 1
 O         0.410208         0.720084         0.016732
 C        -0.808624         0.966915         0.692616
 C        -1.333160         0.916798         2.173153
 C        -2.542636         1.336034         1.381726
 O        -3.779795         1.547655         1.739442
 C        -2.111556         0.257634         0.291680
 C        -2.530689         0.777663        -1.145721
 C        -2.229196         2.220147        -0.943270
 C        -1.592498         2.301551         0.421015
 H         1.210989         0.522088         0.559796
 H        -1.615026        -0.144177         2.557119
 H        -1.015947         1.648227         2.930696
 H        -4.323308         1.049420         1.157848
 H        -2.336230        -0.786306         0.591292
 H        -1.848365         0.202078        -1.813302
 H        -3.532123         0.481468        -1.543202
 H        -1.595580         2.641876        -1.719918
 H        -3.169541         2.888869        -0.999740
 H        -1.080459         3.070623         1.032595
