19
Iteration:  2716
 O         0.463346         0.795935         0.196667
 C        -0.860027         0.911949         0.665300
 C        -1.267750         1.019745         2.171860
 C        -2.518902         1.384935         1.387194
 O        -3.822725         1.615991         1.778486
 C        -2.140062         0.126353         0.210841
 C        -2.621866         0.676113        -1.193969
 C        -2.195383         2.177859        -1.007164
 C        -1.540797         2.239628         0.392892
 H         0.570671         1.097310        -0.719941
 H        -1.339838         0.088681         2.783615
 H        -0.865004         1.870565         2.744723
 H        -4.017813         0.809395         2.147340
 H        -2.311493        -0.939451         0.493554
 H        -1.969304         0.175372        -1.864009
 H        -3.737819         0.485642        -1.273893
 H        -1.523984         2.587654        -1.764448
 H        -3.135401         2.746098        -1.191942
 H        -1.180187         3.225903         0.832690
