19
Iteration:   283charge 0 multiplicity 1
 O         0.436121         0.763222         0.244914
 C        -0.839870         0.939536         0.645842
 C        -1.232682         0.912755         2.133792
 C        -2.458904         1.386810         1.338876
 O        -3.797843         1.532315         1.654592
 C        -2.086068         0.196582         0.228957
 C        -2.554879         0.728913        -1.162635
 C        -2.357688         2.260386        -0.951583
 C        -1.634932         2.275601         0.444912
 H         0.535888         0.011276        -0.412433
 H        -1.266268        -0.056821         2.638523
 H        -0.599957         1.580119         2.716826
 H        -3.952637         1.863196         2.588513
 H        -2.078045        -0.848011         0.473633
 H        -2.012961         0.300355        -2.018254
 H        -3.615486         0.515874        -1.298989
 H        -1.668745         2.689444        -1.767964
 H        -3.344125         2.786142        -0.866825
 H        -1.229517         3.198865         0.725276
