19
Iteration:  3351
 O         0.521703         0.706136         0.248062
 C        -0.923585         0.824281         0.609748
 C        -1.245152         0.963033         2.112691
 C        -2.442708         1.420300         1.340794
 O        -3.826159         1.486578         1.904074
 C        -2.217418         0.216759         0.214226
 C        -2.480595         0.753947        -1.186793
 C        -2.307687         2.241535        -1.048019
 C        -1.652650         2.294921         0.423245
 H         0.786555         1.525958        -0.174220
 H        -1.431764        -0.003877         2.582125
 H        -0.729229         1.782429         2.727120
 H        -4.238764         1.901183         1.205462
 H        -2.313780        -0.858759         0.442323
 H        -1.772307         0.282335        -1.869877
 H        -3.434644         0.383602        -1.645069
 H        -1.414311         2.486232        -1.668302
 H        -3.235499         2.874844        -1.196142
 H        -1.108636         3.129495         0.894199
