19
Iteration:  3240
 O         0.519879         0.709492         0.212905
 C        -0.818626         1.006099         0.645941
 C        -1.291693         0.837199         2.166371
 C        -2.549370         1.265057         1.357080
 O        -3.794041         1.624678         1.837744
 C        -1.991451         0.185773         0.132255
 C        -2.567050         0.805102        -1.118353
 C        -2.217163         2.181404        -1.069383
 C        -1.766717         2.355493         0.473506
 H         0.313121         0.226036        -0.642394
 H        -1.292278        -0.147382         2.748367
 H        -0.962771         1.672341         2.806738
 H        -4.211623         1.378766         0.930876
 H        -2.171439        -0.781684         0.600752
 H        -2.225110         0.369083        -2.080000
 H        -3.659273         0.701853        -1.103294
 H        -1.403180         2.612037        -1.685682
 H        -3.002807         2.909649        -1.146518
 H        -1.564891         3.254567         1.031605
