19
Iteration:  4846
 O         0.487649         0.765995         0.229152
 C        -0.831387         1.007043         0.717327
 C        -1.210882         1.118201         2.157528
 C        -2.495833         1.301001         1.287160
 O        -3.769802         1.591676         1.750998
 C        -2.049331         0.161171         0.362207
 C        -2.606554         0.551249        -1.044814
 C        -2.290271         2.083227        -1.193262
 C        -1.725800         2.244779         0.292331
 H         1.065536         1.370187         0.777522
 H        -1.288552         0.208639         2.857649
 H        -0.943163         2.072185         2.628586
 H        -4.314388         2.285578         1.317576
 H        -2.187466        -0.802569         0.858953
 H        -1.987043         0.026531        -1.808455
 H        -3.647180         0.330638        -1.042085
 H        -1.724016         2.335386        -2.167737
 H        -3.288612         2.722378        -1.339709
 H        -1.643334         3.292496         0.603737
