19
Iteration:   733charge 0 multiplicity 1
 O         0.591733         0.597339         0.286802
 C        -0.781980         0.989810         0.543661
 C        -1.251947         0.976597         2.079013
 C        -2.534201         1.264055         1.321470
 O        -3.902108         1.503137         1.824149
 C        -2.084702         0.260265         0.193818
 C        -2.647917         0.807131        -1.160156
 C        -2.216683         2.300658        -0.999629
 C        -1.724709         2.198429         0.422907
 H         0.893990         1.091427        -0.591550
 H        -1.211456         0.016393         2.644518
 H        -0.686267         1.696050         2.762297
 H        -3.711584         2.025998         2.543734
 H        -2.112686        -0.795881         0.287605
 H        -2.557780         0.211595        -2.098657
 H        -3.736655         0.812686        -1.027504
 H        -1.624235         2.816273        -1.739864
 H        -3.061175         2.890161        -0.949806
 H        -1.320139         3.223726         0.892855
