19
Iteration:  3730
 O         0.496580         0.673506         0.238101
 C        -0.886556         0.974037         0.603349
 C        -1.328145         0.965394         2.180397
 C        -2.475166         1.278026         1.294564
 O        -3.700593         1.514219         1.904646
 C        -2.214798         0.248612         0.141009
 C        -2.542610         0.808725        -1.215240
 C        -2.222529         2.277013        -1.004236
 C        -1.675043         2.311850         0.356097
 H         0.896238         0.211757         1.004640
 H        -1.270983         0.014808         2.701467
 H        -0.964915         1.904231         2.639557
 H        -4.393393         1.036708         1.298336
 H        -2.300360        -0.811391         0.403744
 H        -2.033347         0.200709        -1.982726
 H        -3.554991         0.462988        -1.360190
 H        -1.499339         2.684865        -1.738832
 H        -3.075500         2.918648        -1.097701
 H        -1.395835         3.185253         0.888565
