19
Iteration:  2099charge 0 multiplicity 1
 O         0.346222         0.861933         0.090137
 C        -0.859096         0.969524         0.714215
 C        -1.247267         0.945462         2.199069
 C        -2.551114         1.287259         1.322395
 O        -3.750436         1.651875         1.856096
 C        -2.163667         0.218109         0.243253
 C        -2.473172         0.669388        -1.284432
 C        -2.133285         2.132770        -1.023927
 C        -1.683472         2.270610         0.457858
 H         0.593121         0.002658         0.151953
 H        -1.246885         0.006312         2.701708
 H        -0.739401         1.767638         2.649543
 H        -4.259954         1.126349         2.403466
 H        -2.232100        -0.865622         0.488687
 H        -1.870070         0.155697        -2.071739
 H        -3.571894         0.351359        -1.488576
 H        -1.468469         2.617728        -1.827455
 H        -3.061424         2.655028        -1.194819
 H        -1.343157         3.230698         0.816389
