19
Iteration:  1563charge 0 multiplicity 1
 O         0.497256         0.637204         0.090821
 C        -0.795786         1.035716         0.657608
 C        -1.284914         0.894398         2.138467
 C        -2.500477         1.328448         1.349489
 O        -3.795923         1.613576         1.709244
 C        -2.090620         0.298141         0.290195
 C        -2.609948         0.669127        -1.050855
 C        -2.268767         2.200481        -1.030141
 C        -1.706418         2.337431         0.420705
 H         1.164901         1.407598         0.082999
 H        -1.288021        -0.152363         2.343120
 H        -0.872931         1.544730         2.995796
 H        -4.150471         0.906525         2.136888
 H        -2.229970        -0.790365         0.724577
 H        -2.051231         0.000898        -1.764333
 H        -3.703401         0.425097        -1.131768
 H        -1.548502         2.481336        -1.828062
 H        -3.124270         2.812122        -1.272972
 H        -1.333680         3.362679         0.911001
