19
Iteration:  2759charge 0 multiplicity 1
 O         0.476584         0.787829         0.266574
 C        -0.792729         1.085339         0.621136
 C        -1.201747         0.875817         2.179259
 C        -2.463300         1.250275         1.347017
 O        -3.799660         1.728536         1.714291
 C        -2.080968         0.248946         0.213345
 C        -2.690417         0.619301        -1.183362
 C        -2.232890         2.082823        -1.028349
 C        -1.743097         2.223488         0.464952
 H         0.656956         1.256859        -0.517560
 H        -1.247116        -0.204206         2.523723
 H        -0.643867         1.573782         2.848352
 H        -4.286304         1.132880         2.247320
 H        -2.157163        -0.805908         0.482266
 H        -2.246113         0.284883        -2.150378
 H        -3.809526         0.642613        -1.019409
 H        -1.368542         2.156429        -1.669034
 H        -2.827839         2.992322        -1.300188
 H        -1.437642         3.254219         0.806350
