19
Iteration:  3300
 O         0.514632         0.640510         0.246149
 C        -0.904348         1.002823         0.709353
 C        -1.225200         0.897436         2.143025
 C        -2.527732         1.350917         1.286276
 O        -3.784704         1.509534         1.885356
 C        -2.054650         0.202484         0.208560
 C        -2.578991         0.720974        -1.179762
 C        -2.190016         2.339683        -1.039175
 C        -1.759377         2.304840         0.381058
 H         0.685292         0.801070        -0.644821
 H        -1.192233        -0.042995         2.648741
 H        -0.852412         1.759415         2.671971
 H        -4.561168         1.543469         1.177825
 H        -2.277462        -0.784146         0.616542
 H        -2.050772         0.266914        -2.029260
 H        -3.643595         0.440261        -1.303311
 H        -1.364042         2.602635        -1.691248
 H        -3.047843         3.065238        -1.177862
 H        -1.485238         3.285104         0.838856
