19
Iteration:  1732
 O         0.489319         0.810234         0.114664
 C        -0.786542         0.993375         0.654986
 C        -1.287764         0.973880         2.119581
 C        -2.508527         1.434559         1.406168
 O        -3.808041         1.575521         1.762692
 C        -2.133047         0.216245         0.303938
 C        -2.602881         0.651714        -1.093434
 C        -2.230885         2.179483        -1.044009
 C        -1.660289         2.285698         0.396494
 H         0.544460        -0.135980        -0.007627
 H        -1.396084        -0.124489         2.434390
 H        -0.807174         1.481803         2.905022
 H        -4.167445         0.754259         2.119343
 H        -2.190534        -0.798518         0.579987
 H        -2.039252         0.079632        -1.851081
 H        -3.621732         0.457792        -1.385170
 H        -1.412624         2.309405        -1.670903
 H        -3.007353         2.862541        -1.386574
 H        -1.281485         3.312350         0.611240
