19
Iteration:  1490
 O         0.357745         0.694546         0.190961
 C        -0.840457         0.968774         0.673988
 C        -1.238935         0.890014         2.145562
 C        -2.457227         1.355147         1.302552
 O        -3.705280         1.636693         1.765345
 C        -2.121186         0.303323         0.258749
 C        -2.568782         0.642207        -1.173150
 C        -2.265402         2.180812        -1.076697
 C        -1.692524         2.315088         0.435693
 H         1.083706         1.409407         0.124198
 H        -1.117561        -0.184431         2.437464
 H        -0.944722         1.504025         3.082652
 H        -4.064060         0.847001         2.166845
 H        -2.089009        -0.689436         0.493482
 H        -2.011018         0.070909        -1.936882
 H        -3.634869         0.430858        -1.047067
 H        -1.703182         2.725859        -1.832860
 H        -3.286816         2.608354        -1.091742
 H        -1.457261         3.289996         0.808803
