19
Iteration:   993
 O         0.424807         0.776819         0.085807
 C        -0.891239         0.927593         0.676549
 C        -1.264958         0.887136         2.205009
 C        -2.496965         1.355204         1.316600
 O        -3.770872         1.547218         1.895590
 C        -2.179277         0.232910         0.252539
 C        -2.505154         0.725104        -1.204932
 C        -2.216694         2.322747        -1.062599
 C        -1.613473         2.312294         0.386852
 H         0.514011        -0.249722         0.326347
 H        -1.431568        -0.094954         2.489091
 H        -0.894876         1.615594         2.980780
 H        -4.102588         0.613733         2.043457
 H        -2.383227        -0.766222         0.602397
 H        -1.811382         0.315103        -1.981800
 H        -3.529012         0.438023        -1.522250
 H        -1.516269         2.786985        -1.832564
 H        -3.161464         2.995448        -1.139863
 H        -1.131386         3.190413         0.801452
