19
Iteration:   647
 O         0.353241         0.759744         0.034327
 C        -0.872680         0.954761         0.683263
 C        -1.262376         0.905406         2.256130
 C        -2.494280         1.278254         1.304793
 O        -3.724935         1.541554         1.803090
 C        -2.143922         0.195609         0.202575
 C        -2.470766         0.704891        -1.244804
 C        -2.196576         2.250915        -0.996563
 C        -1.795705         2.319613         0.496628
 H         1.022554         0.274951         0.590751
 H        -1.197954        -0.092270         2.720569
 H        -0.732007         1.642319         2.799760
 H        -3.554213         2.314480         2.529448
 H        -2.301058        -0.890543         0.489765
 H        -2.021737         0.189206        -2.137146
 H        -3.560896         0.665021        -1.493158
 H        -1.400585         2.829844        -1.608671
 H        -3.141796         2.809891        -1.279153
 H        -1.336458         3.292038         0.867356
