19
Iteration:  3144
 O         0.448055         0.743178         0.200312
 C        -0.791501         0.987561         0.714237
 C        -1.264625         0.841311         2.142871
 C        -2.489890         1.319065         1.386082
 O        -3.814600         1.621626         1.668949
 C        -2.063857         0.205708         0.243879
 C        -2.588560         0.696040        -1.202808
 C        -2.239845         2.236672        -1.001719
 C        -1.729166         2.254876         0.466601
 H         0.587276         1.058472        -0.760205
 H        -1.286178        -0.174821         2.578678
 H        -0.770921         1.550116         2.816611
 H        -3.939882         1.979467         2.504292
 H        -2.157447        -0.812397         0.655714
 H        -1.962295         0.338026        -2.028024
 H        -3.631781         0.353242        -1.362507
 H        -1.487024         2.441014        -1.758831
 H        -3.119265         2.952435        -1.236034
 H        -1.358926         3.154193         1.002870
