19
Iteration:  1562
 O         0.496196         0.633029         0.094622
 C        -0.799822         1.037691         0.659588
 C        -1.284778         0.903666         2.142802
 C        -2.495598         1.323282         1.348134
 O        -3.786574         1.614123         1.698571
 C        -2.084355         0.299002         0.288180
 C        -2.625004         0.667732        -1.047710
 C        -2.275391         2.205717        -1.032262
 C        -1.703518         2.335226         0.423866
 H         1.143624         1.456585         0.086717
 H        -1.266561        -0.172547         2.368508
 H        -0.890304         1.515227         2.999113
 H        -4.152403         0.870517         2.147486
 H        -2.231740        -0.807701         0.724253
 H        -2.024195         0.028568        -1.737215
 H        -3.724703         0.420592        -1.143271
 H        -1.538640         2.470729        -1.847729
 H        -3.128504         2.850171        -1.296024
 H        -1.318267         3.321552         0.919517
