19
Iteration:   587
 O         0.463859         0.687063         0.257140
 C        -0.791887         0.967029         0.627026
 C        -1.272310         1.010551         2.153507
 C        -2.475469         1.341366         1.282716
 O        -3.759283         1.440073         1.777065
 C        -2.052144         0.244881         0.184088
 C        -2.644768         0.791158        -1.154743
 C        -2.308848         2.292021        -1.052784
 C        -1.701808         2.251358         0.400112
 H         0.411725        -0.163095        -0.062525
 H        -1.199930        -0.010983         2.590476
 H        -0.781485         1.842276         2.752909
 H        -3.758986         2.033822         2.591902
 H        -2.136080        -0.801836         0.544676
 H        -2.071522         0.368772        -1.958362
 H        -3.726797         0.581912        -1.143074
 H        -1.590497         2.524750        -1.782846
 H        -3.204989         2.853909        -0.972742
 H        -1.246043         3.127212         0.918642
