19
Iteration:  2883charge 0 multiplicity 1
 O         0.480051         0.885958         0.197507
 C        -0.852070         0.911459         0.607112
 C        -1.223490         0.975219         2.175515
 C        -2.514567         1.365320         1.333429
 O        -3.779656         1.671241         1.760349
 C        -2.202443         0.088191         0.245577
 C        -2.559935         0.685351        -1.097945
 C        -2.265990         2.179316        -1.002780
 C        -1.617289         2.210756         0.425336
 H         0.574034         0.570838        -0.677303
 H        -1.340111         0.010051         2.744051
 H        -0.674363         1.731565         2.830980
 H        -4.486865         0.897190         1.740525
 H        -2.349263        -0.986694         0.482116
 H        -1.763135         0.291961        -1.733820
 H        -3.584345         0.313707        -1.461766
 H        -1.490171         2.388595        -1.828415
 H        -3.033347         2.877180        -1.220629
 H        -1.227103         3.188303         0.880032
