19
Iteration:  1896charge 0 multiplicity 1
 O         0.417319         0.834504         0.075706
 C        -0.819044         0.922696         0.726117
 C        -1.192811         0.940506         2.215583
 C        -2.502365         1.382228         1.374229
 O        -3.904503         1.594321         1.793931
 C        -2.065851         0.202962         0.243488
 C        -2.600031         0.682493        -1.142121
 C        -2.134835         2.193601        -1.112763
 C        -1.657916         2.291523         0.410673
 H         0.792965        -0.088922         0.276306
 H        -1.369934         0.014304         2.660856
 H        -0.738023         1.626147         2.853942
 H        -4.131843         0.819203         2.311108
 H        -2.197323        -0.876358         0.401032
 H        -2.349765         0.121505        -2.032339
 H        -3.664478         0.692778        -1.200977
 H        -1.429472         2.426798        -1.815226
 H        -2.972846         2.863401        -1.329091
 H        -1.469549         3.333617         0.685366
