19
Iteration:  1855
 O         0.549627         0.767232         0.215440
 C        -0.767761         1.038686         0.669635
 C        -1.218052         1.019966         2.146225
 C        -2.484199         1.243030         1.292813
 O        -3.802640         1.653691         1.659622
 C        -2.108832         0.146235         0.200096
 C        -2.773476         0.709400        -1.106896
 C        -2.288410         2.199142        -0.915276
 C        -1.615004         2.243367         0.389115
 H         0.812408        -0.185417         0.327311
 H        -0.961208         0.217917         2.877904
 H        -0.926083         1.958508         2.606624
 H        -4.369788         0.766590         1.785852
 H        -1.999736        -0.873303         0.470299
 H        -2.473755         0.268593        -2.086340
 H        -3.869174         0.474249        -1.109512
 H        -1.648250         2.564265        -1.772597
 H        -3.109965         2.923597        -0.807633
 H        -1.330941         3.135761         0.903579
