19
Iteration:  2861charge 0 multiplicity 1
 O         0.444635         0.793499         0.162297
 C        -0.808224         0.916120         0.700695
 C        -1.234665         0.987657         2.204567
 C        -2.573780         1.329533         1.266287
 O        -3.791767         1.669233         1.788973
 C        -2.126675         0.257731         0.262965
 C        -2.470164         0.602301        -1.193510
 C        -2.264267         2.175856        -0.992938
 C        -1.660299         2.232732         0.417839
 H         0.497578         0.347759        -0.750597
 H        -1.082647        -0.035166         2.654870
 H        -0.802466         1.750138         2.891849
 H        -4.436766         0.964685         1.903454
 H        -2.159998        -0.758087         0.680140
 H        -1.912723         0.233158        -2.040095
 H        -3.592169         0.508001        -1.380566
 H        -1.732192         2.844425        -1.739193
 H        -3.229694         2.637933        -0.930896
 H        -1.333487         3.260816         0.813723
