19
Iteration:  2080
 O         0.483747         0.906647         0.087939
 C        -0.850709         0.929860         0.624383
 C        -1.253702         0.996010         2.166414
 C        -2.573657         1.257371         1.353820
 O        -3.796033         1.704416         1.901605
 C        -2.204293         0.148318         0.231453
 C        -2.544617         0.688151        -1.166433
 C        -2.100536         2.201003        -1.047473
 C        -1.750501         2.131848         0.431315
 H         0.777521         0.043531         0.138083
 H        -1.132912         0.073568         2.774480
 H        -0.962856         1.916810         2.780033
 H        -4.170483         0.845659         2.073201
 H        -2.338482        -0.952535         0.358487
 H        -2.007174         0.207313        -1.941287
 H        -3.530328         0.575178        -1.563475
 H        -1.190475         2.415447        -1.611128
 H        -2.716958         2.973954        -1.484638
 H        -1.397987         3.080093         0.834405
