19
Iteration:  1904charge 0 multiplicity 1
 O         0.412068         0.837110         0.064869
 C        -0.855818         0.988328         0.678621
 C        -1.243630         0.990304         2.184822
 C        -2.539484         1.286880         1.328180
 O        -3.871953         1.617849         1.841631
 C        -2.088462         0.226025         0.217222
 C        -2.573327         0.695896        -1.141745
 C        -2.136231         2.139468        -1.062201
 C        -1.652042         2.263667         0.421073
 H         0.811910        -0.034569         0.225666
 H        -1.281892        -0.037899         2.712058
 H        -0.722556         1.792609         2.873209
 H        -4.160059         0.924317         2.366359
 H        -2.232116        -0.891195         0.410439
 H        -2.091909         0.142190        -1.975705
 H        -3.667280         0.535929        -1.258304
 H        -1.169425         2.325454        -1.664381
 H        -2.872262         2.919598        -1.341894
 H        -1.194037         3.144368         0.941694
