19
Iteration:  1382charge 0 multiplicity 1
 O         0.513634         0.678802         0.244601
 C        -0.767809         1.002059         0.562813
 C        -1.240405         0.982376         2.135911
 C        -2.470487         1.306525         1.321426
 O        -3.753117         1.611505         1.698622
 C        -2.069183         0.204881         0.218545
 C        -2.739395         0.740698        -1.039784
 C        -2.320708         2.221219        -0.978784
 C        -1.668847         2.219254         0.373593
 H         1.087775         1.437018         0.426881
 H        -1.316846         0.006945         2.662783
 H        -0.817948         1.762131         2.724294
 H        -4.266844         0.771245         1.720677
 H        -2.094945        -0.878924         0.503690
 H        -2.551661         0.237049        -2.035787
 H        -3.829036         0.558518        -0.894412
 H        -1.540660         2.513953        -1.744578
 H        -3.229126         2.896346        -1.073747
 H        -1.280547         3.100033         0.800786
