19
Iteration:  3838charge 0 multiplicity 1
 O         0.416856         0.798632         0.106713
 C        -0.795590         1.015823         0.679319
 C        -1.286872         0.878002         2.139414
 C        -2.496161         1.307295         1.359663
 O        -3.830517         1.437785         1.705291
 C        -2.268849         0.273843         0.314069
 C        -2.557110         0.759484        -1.154973
 C        -2.160640         2.197293        -0.999889
 C        -1.606994         2.306103         0.410355
 H         0.743909        -0.040317         0.353096
 H        -1.166608        -0.152526         2.564766
 H        -0.701921         1.519282         2.851767
 H        -3.841980         2.353548         2.109547
 H        -2.418841        -0.753848         0.653653
 H        -1.714467         0.253791        -1.659956
 H        -3.570429         0.658703        -1.417567
 H        -1.428080         2.606694        -1.743450
 H        -3.056644         2.857665        -1.078150
 H        -1.166607         3.231884         0.701840
