19
Iteration:   472charge 0 multiplicity 1
 O         0.424031         0.722648         0.192393
 C        -0.818592         0.965119         0.647441
 C        -1.286137         0.962710         2.057954
 C        -2.516114         1.371935         1.231733
 O        -3.758135         1.471934         1.930718
 C        -2.241681         0.228871         0.230622
 C        -2.485950         0.697632        -1.233964
 C        -2.261111         2.267339        -0.977564
 C        -1.649809         2.280770         0.320908
 H         0.960975         0.396968         0.853636
 H        -1.358278        -0.002379         2.519451
 H        -0.919363         1.784341         2.686414
 H        -3.527111         1.966950         2.688163
 H        -2.380421        -0.824918         0.593612
 H        -1.709930         0.233214        -1.866660
 H        -3.511434         0.572475        -1.513602
 H        -1.490279         2.674856        -1.705486
 H        -3.264517         2.773608        -1.007538
 H        -1.345358         3.188475         0.759670
