19
Iteration:  2327charge 0 multiplicity 1
 O         0.577064         0.804352         0.221087
 C        -0.792948         0.925362         0.685320
 C        -1.265272         0.943689         2.124734
 C        -2.540030         1.242311         1.218570
 O        -3.699024         1.708764         1.698102
 C        -2.222599         0.161327         0.197673
 C        -2.535793         0.704503        -1.158203
 C        -2.381805         2.228633        -0.925803
 C        -1.685964         2.253542         0.437377
 H         0.926071        -0.200984         0.099467
 H        -1.095852         0.002851         2.732213
 H        -1.032253         1.927150         2.541643
 H        -4.046192         1.188729         2.490213
 H        -2.466183        -0.812112         0.636072
 H        -1.953029         0.226977        -1.965980
 H        -3.539239         0.520923        -1.416342
 H        -1.842458         2.876843        -1.663640
 H        -3.408779         2.581061        -0.807629
 H        -1.488883         3.149627         0.993507
