19
Iteration:   553
 O         0.557181         0.804951         0.072701
 C        -0.811399         0.995577         0.730470
 C        -1.133099         0.924422         2.220685
 C        -2.526093         1.288575         1.338352
 O        -3.917862         1.462423         1.646731
 C        -2.125658         0.319929         0.302544
 C        -2.712343         0.788721        -1.088228
 C        -2.168807         2.191477        -1.000840
 C        -1.626207         2.197073         0.435028
 H         0.335526         0.060343        -0.434937
 H        -1.102989        -0.118605         2.687938
 H        -0.769470         1.697906         2.950322
 H        -4.045610         2.305679         1.964418
 H        -2.311768        -0.769636         0.619184
 H        -2.363634         0.154026        -1.901460
 H        -3.821244         0.695002        -1.221364
 H        -1.626200         2.448731        -1.859152
 H        -3.006057         2.858547        -1.169840
 H        -1.268781         3.093623         0.905180
