19
Iteration:   968
 O         0.450030         0.740867         0.016592
 C        -0.840027         0.918966         0.663798
 C        -1.212750         1.030032         2.086457
 C        -2.584955         1.193802         1.343442
 O        -3.841618         1.662078         1.876994
 C        -2.171670         0.198894         0.167089
 C        -2.419439         0.786372        -1.183610
 C        -2.172774         2.245445        -0.910799
 C        -1.722755         2.235807         0.497052
 H         0.425363        -0.241637         0.055747
 H        -1.210273         0.055031         2.713582
 H        -1.004961         1.898881         2.705014
 H        -4.168742         1.083377         2.731304
 H        -2.137182        -0.965359         0.180085
 H        -1.703144         0.329991        -1.904265
 H        -3.472305         0.580945        -1.706623
 H        -1.414651         2.729338        -1.484584
 H        -3.063546         2.809885        -1.173026
 H        -1.492753         3.142575         0.930599
