19
Iteration:  1884
 O         0.488011         0.793183         0.133510
 C        -0.776541         0.951877         0.686829
 C        -1.233436         0.877025         2.197923
 C        -2.492441         1.435628         1.363374
 O        -3.818975         1.544935         1.672324
 C        -2.116184         0.229716         0.309355
 C        -2.651295         0.729490        -1.068230
 C        -2.195907         2.221477        -1.098771
 C        -1.727719         2.298512         0.337421
 H         0.800561        -0.041984         0.250329
 H        -1.236879        -0.090621         2.646207
 H        -0.733895         1.575723         2.867577
 H        -4.058201         0.735093         2.072665
 H        -2.229425        -0.749686         0.838058
 H        -2.338430         0.107353        -1.888953
 H        -3.693243         0.680280        -0.878825
 H        -1.478716         2.553757        -1.786048
 H        -3.108412         2.821291        -1.157257
 H        -1.303832         3.259235         0.708702
