19
Iteration:   371charge 0 multiplicity 1
 O         0.504231         0.751979         0.123871
 C        -0.818987         0.960510         0.604750
 C        -1.334332         0.883325         2.065772
 C        -2.541038         1.319213         1.329935
 O        -3.854104         1.465066         1.819092
 C        -2.192700         0.280028         0.277413
 C        -2.587562         0.710996        -1.079316
 C        -2.130372         2.231537        -0.974107
 C        -1.606738         2.232225         0.423439
 H         0.824222         1.636669        -0.331506
 H        -1.136932         0.000300         2.605171
 H        -0.857734         1.666580         2.656770
 H        -4.179711         2.496894         1.827264
 H        -2.351612        -0.680293         0.640142
 H        -2.208632         0.096991        -1.871024
 H        -3.650089         0.495787        -1.161814
 H        -1.176931         2.353093        -1.620714
 H        -2.901806         3.043319        -1.100290
 H        -1.224146         3.163064         0.805236
