19
Iteration:  2603
 O         0.489314         0.803882         0.228003
 C        -0.826805         1.007220         0.700354
 C        -1.133523         0.810798         2.253273
 C        -2.574378         1.268062         1.305935
 O        -3.790237         1.748512         1.734673
 C        -2.044380         0.139867         0.207101
 C        -2.630552         0.684166        -1.117222
 C        -2.219681         2.177675        -1.088655
 C        -1.736040         2.337597         0.396764
 H         0.203361         0.721718        -0.778944
 H        -1.436039        -0.231757         2.602988
 H        -0.607743         1.539484         2.943898
 H        -4.400076         0.974302         2.255080
 H        -2.023588        -0.937923         0.393028
 H        -2.249072         0.083153        -2.064312
 H        -3.723602         0.552852        -0.989836
 H        -1.326676         2.451597        -1.695717
 H        -3.146201         2.781780        -1.352729
 H        -1.483307         3.307311         0.707737
