19
Iteration:   142
 O         0.547377         0.667065         0.164545
 C        -0.823258         0.931951         0.663939
 C        -1.248821         0.859292         2.208838
 C        -2.446041         1.383881         1.448370
 O        -3.884880         1.446153         1.702613
 C        -2.191646         0.304745         0.264643
 C        -2.565419         0.767475        -1.223079
 C        -2.362431         2.319695        -1.047516
 C        -1.569986         2.223390         0.410307
 H         0.856823         1.496831        -0.168098
 H        -1.236151        -0.161771         2.662897
 H        -0.849858         1.671739         2.857886
 H        -4.052745         1.824971         2.476427
 H        -2.552034        -0.625046         0.576173
 H        -1.756912         0.474799        -1.920517
 H        -3.586526         0.475295        -1.514397
 H        -1.688412         2.627971        -1.766949
 H        -3.218260         2.979237        -0.962752
 H        -1.024857         3.099804         0.486974
