19
Iteration:    25
 O         0.483139         0.694236         0.041994
 C        -0.814910         0.993494         0.640609
 C        -1.211036         0.898295         2.079045
 C        -2.596147         1.216750         1.342234
 O        -3.919199         1.490119         1.833922
 C        -2.130940         0.221618         0.182982
 C        -2.574572         0.796265        -1.158195
 C        -2.071171         2.293351        -0.962981
 C        -1.776162         2.294467         0.517242
 H         1.019468         0.710986         0.855258
 H        -1.080939        -0.047791         2.528071
 H        -0.871430         1.659270         2.829483
 H        -3.951765         2.415178         2.053453
 H        -2.131514        -0.857548         0.315350
 H        -2.135128         0.294348        -2.011532
 H        -3.647696         0.723457        -1.191141
 H        -0.997409         2.399759        -1.422722
 H        -2.700700         3.097893        -1.402806
 H        -1.436598         3.246959         1.042904
