19
Iteration:  4576charge 0 multiplicity 1
 O         0.537669         0.791702         0.267036
 C        -0.764492         1.003961         0.692835
 C        -1.226812         1.136101         2.158756
 C        -2.528811         1.354262         1.245121
 O        -3.896089         1.555604         1.787206
 C        -2.114602         0.210280         0.374259
 C        -2.474452         0.554270        -1.074667
 C        -2.305794         2.072925        -1.143017
 C        -1.704966         2.235059         0.314772
 H         0.542107         0.354042        -0.707551
 H        -1.306537         0.250061         2.795264
 H        -0.970034         2.086569         2.540629
 H        -3.748486         2.440374         2.118149
 H        -2.373104        -0.804627         0.711487
 H        -2.091270         0.014786        -1.957134
 H        -3.526897         0.178057        -1.231327
 H        -1.680794         2.455860        -2.002320
 H        -3.260597         2.527502        -1.175336
 H        -1.405988         3.309544         0.542259
