19
Iteration:  2751charge 0 multiplicity 1
 O         0.487236         0.823637         0.223633
 C        -0.766749         1.067507         0.641802
 C        -1.245216         0.859468         2.175336
 C        -2.449018         1.264745         1.382688
 O        -3.794869         1.724225         1.716810
 C        -2.140887         0.165144         0.209245
 C        -2.675271         0.632455        -1.102474
 C        -2.204628         2.155870        -1.063768
 C        -1.724285         2.237961         0.447047
 H         0.799063         1.194448        -0.588790
 H        -1.215579        -0.140107         2.590607
 H        -0.733435         1.499082         2.893417
 H        -4.384732         1.219696         2.138222
 H        -2.106061        -0.894135         0.478242
 H        -2.384580         0.254796        -2.014822
 H        -3.782751         0.511822        -1.309672
 H        -1.276430         2.099234        -1.708104
 H        -2.955624         2.824726        -1.467541
 H        -1.561355         3.248176         0.977324
