19
Iteration:   865
 O         0.533399         0.733648         0.134471
 C        -0.746730         1.015170         0.626224
 C        -1.247471         0.907082         2.092086
 C        -2.539680         1.258827         1.284803
 O        -3.810872         1.561319         1.830853
 C        -2.116776         0.244620         0.211130
 C        -2.709035         0.759839        -1.089654
 C        -2.211289         2.328217        -1.018910
 C        -1.669286         2.275151         0.429213
 H         0.814056         0.052638         0.763179
 H        -1.208769        -0.193125         2.547921
 H        -0.839341         1.592736         2.920602
 H        -4.325818         0.813720         1.958009
 H        -2.174444        -0.835839         0.370432
 H        -2.290303         0.212975        -1.959002
 H        -3.804203         0.716149        -1.119266
 H        -1.435185         2.387102        -1.785325
 H        -3.047131         2.947359        -1.195723
 H        -1.361404         3.303280         0.939926
