19
Iteration:   516charge 0 multiplicity 1
 O         0.430777         0.870144         0.081550
 C        -0.830053         1.007332         0.705902
 C        -1.241764         0.913283         2.121880
 C        -2.578128         1.255299         1.265750
 O        -3.751515         1.521214         1.778631
 C        -2.163028         0.245450         0.270524
 C        -2.605177         0.706550        -1.112935
 C        -2.129854         2.160490        -1.011331
 C        -1.700971         2.243429         0.482735
 H         0.540027         0.006021        -0.207435
 H        -1.387315        -0.051469         2.576804
 H        -0.963521         1.672024         2.843071
 H        -3.663224         2.472941         1.971785
 H        -2.183836        -0.835740         0.598694
 H        -2.080809         0.183787        -1.943197
 H        -3.683993         0.671695        -1.177892
 H        -1.198615         2.409505        -1.610930
 H        -2.993389         2.882590        -1.093646
 H        -1.267341         3.118907         0.916609
