19
Iteration:  2530
 O         0.419679         0.627804         0.267192
 C        -0.806167         1.059095         0.613708
 C        -1.263025         0.972049         2.145216
 C        -2.491221         1.265897         1.323532
 O        -3.738693         1.601387         1.775998
 C        -2.107152         0.244549         0.245699
 C        -2.565903         0.660412        -1.143445
 C        -2.261568         2.270859        -1.000518
 C        -1.724423         2.324873         0.368690
 H         0.724403         0.827638        -0.655075
 H        -1.223945         0.052803         2.717609
 H        -0.887087         1.792259         2.755736
 H        -4.163627         0.733786         2.208275
 H        -2.002189        -0.852443         0.514722
 H        -1.931061         0.221288        -1.846412
 H        -3.675046         0.562973        -1.375749
 H        -1.516352         2.313408        -1.775169
 H        -3.159263         2.879984        -1.280834
 H        -1.426948         3.404199         0.727284
