19
Iteration:  1495
 O         0.423706         0.681663         0.197779
 C        -0.817185         1.005436         0.674130
 C        -1.237134         0.900427         2.190425
 C        -2.459852         1.336123         1.330414
 O        -3.699487         1.632253         1.723813
 C        -2.125258         0.282158         0.253571
 C        -2.604141         0.687484        -1.139638
 C        -2.293128         2.164504        -1.070135
 C        -1.706331         2.295048         0.410702
 H         0.950944         1.439553         0.123204
 H        -1.208112        -0.211565         2.424231
 H        -0.827321         1.547782         2.913006
 H        -4.172968         0.803452         2.166733
 H        -2.238063        -0.865073         0.552018
 H        -2.124328         0.175331        -1.982361
 H        -3.718146         0.498904        -1.275096
 H        -1.663246         2.700157        -1.823118
 H        -3.283691         2.679729        -1.073125
 H        -1.381563         3.330778         0.744120
