19
Iteration:  3066
 O         0.525802         0.618751         0.321442
 C        -0.797938         1.039886         0.629267
 C        -1.303164         0.951261         2.096356
 C        -2.511769         1.245642         1.319346
 O        -3.835852         1.571874         1.881676
 C        -2.109819         0.239441         0.203064
 C        -2.593471         0.761524        -1.129683
 C        -2.210834         2.269888        -1.049227
 C        -1.697500         2.361487         0.305585
 H         0.569634         0.692500        -0.671936
 H        -1.132843        -0.079232         2.495775
 H        -0.972013         1.718798         2.794228
 H        -4.155181         0.680356         2.032262
 H        -1.892922        -0.815330         0.426281
 H        -2.079498         0.215591        -1.969471
 H        -3.665928         0.529732        -1.243120
 H        -1.399198         2.383469        -1.791893
 H        -3.141584         2.966108        -1.205066
 H        -1.473857         3.405330         0.707870
