19
Iteration:  1970
 O         0.501314         0.802655         0.116051
 C        -0.809814         0.999471         0.640019
 C        -1.306978         0.928903         2.126877
 C        -2.543541         1.325528         1.250078
 O        -3.788960         1.699210         1.814671
 C        -2.157512         0.203939         0.263150
 C        -2.460377         0.622508        -1.128264
 C        -2.276114         2.224598        -0.970161
 C        -1.672841         2.282808         0.409908
 H         0.667866        -0.180555         0.419516
 H        -1.466370        -0.171031         2.459635
 H        -0.693953         1.432748         2.984757
 H        -4.072811         0.888693         2.440231
 H        -2.245816        -0.883378         0.537094
 H        -1.834937         0.193476        -1.906354
 H        -3.483796         0.373159        -1.444099
 H        -1.856575         2.669092        -1.935586
 H        -3.340486         2.529257        -0.997961
 H        -1.340164         3.258306         0.756918
