19
Iteration:   828charge 0 multiplicity 1
 O         0.327737         0.820330         0.041477
 C        -0.876930         0.962822         0.666906
 C        -1.253022         0.919315         2.139723
 C        -2.482748         1.299909         1.271847
 O        -3.742584         1.577133         1.816369
 C        -2.192451         0.217946         0.239033
 C        -2.528775         0.730896        -1.120227
 C        -2.200373         2.259367        -0.950545
 C        -1.561915         2.240367         0.475672
 H         0.754397         0.119831         0.464060
 H        -1.240250        -0.067174         2.552615
 H        -0.787093         1.687055         2.800723
 H        -4.286655         0.780551         1.605184
 H        -2.425424        -0.771266         0.563637
 H        -1.827995         0.299635        -1.818206
 H        -3.469830         0.505524        -1.553669
 H        -1.527530         2.704775        -1.700747
 H        -3.136051         2.935060        -1.048422
 H        -1.262086         3.062180         1.047124
