19
Iteration:  3811charge 0 multiplicity 1
 O         0.423480         0.860377        -0.000446
 C        -0.799937         0.900054         0.691870
 C        -1.350958         0.911738         2.215159
 C        -2.537592         1.264349         1.335977
 O        -3.899685         1.552254         1.774740
 C        -2.072741         0.169159         0.268819
 C        -2.558133         0.737840        -1.150545
 C        -2.113835         2.257828        -1.008613
 C        -1.638294         2.243178         0.497711
 H         0.723868        -0.004218        -0.223492
 H        -1.356350         0.022224         2.881155
 H        -0.811586         1.669912         2.791107
 H        -3.970303         2.488027         1.428745
 H        -2.000263        -0.907915         0.615178
 H        -1.979419         0.209016        -1.893103
 H        -3.698441         0.656893        -1.119274
 H        -1.314200         2.576244        -1.669504
 H        -3.010658         2.909094        -1.134420
 H        -1.111822         3.141565         1.037277
