19
Iteration:  4560charge 0 multiplicity 1
 O         0.517436         0.728578         0.398232
 C        -0.868385         1.050292         0.689508
 C        -1.266762         1.175522         2.139018
 C        -2.485096         1.474850         1.300945
 O        -3.777451         1.453118         1.798615
 C        -2.103835         0.255460         0.295128
 C        -2.592026         0.486368        -1.165314
 C        -2.329238         2.054175        -1.122330
 C        -1.634804         2.326461         0.193043
 H         0.511747         0.444809        -0.563355
 H        -1.205256         0.182066         2.675639
 H        -0.730059         1.900211         2.832352
 H        -4.014793         2.206417         2.351513
 H        -2.108210        -0.791960         0.627584
 H        -1.870736        -0.087893        -1.824946
 H        -3.638137         0.334207        -1.421850
 H        -1.763370         2.432872        -1.983649
 H        -3.370616         2.487839        -0.997173
 H        -1.285034         3.278651         0.511110
