19
Iteration:  2608
 O         0.502337         0.809598         0.215126
 C        -0.849919         0.995304         0.696134
 C        -1.157119         0.831730         2.212092
 C        -2.563536         1.302344         1.340790
 O        -3.806376         1.765880         1.732399
 C        -2.023615         0.140239         0.205942
 C        -2.614899         0.673562        -1.112538
 C        -2.230828         2.198246        -1.042960
 C        -1.752032         2.258089         0.418984
 H         0.444154         0.632096        -0.697127
 H        -1.263695        -0.194615         2.506024
 H        -0.712103         1.504184         2.920805
 H        -4.235268         1.099753         2.139405
 H        -2.061994        -0.970137         0.329458
 H        -2.255863         0.272824        -2.006364
 H        -3.728268         0.486732        -1.187271
 H        -1.466142         2.345289        -1.834261
 H        -3.130659         2.698250        -1.399788
 H        -1.416777         3.310016         0.765189
