19
Iteration:  3403
 O         0.434835         0.711468         0.057175
 C        -0.784725         0.942553         0.668417
 C        -1.339800         0.903748         2.231237
 C        -2.490374         1.255019         1.257154
 O        -3.828747         1.649342         1.811455
 C        -1.998233         0.219095         0.239814
 C        -2.563539         0.770562        -1.151795
 C        -2.183231         2.203585        -0.965571
 C        -1.737477         2.242581         0.458763
 H         1.002139         1.562705         0.114843
 H        -1.519079        -0.094264         2.725740
 H        -0.758083         1.687470         2.806353
 H        -4.394632         1.375555         1.139044
 H        -2.288045        -0.777202         0.726613
 H        -2.236731         0.091244        -2.031317
 H        -3.620963         0.435133        -1.154303
 H        -1.265181         2.563287        -1.573759
 H        -3.025776         2.880853        -1.032118
 H        -1.420585         3.227117         0.834024
