19
Iteration:  1807charge 0 multiplicity 1
 O         0.412142         0.811025         0.119020
 C        -0.806087         1.081695         0.642197
 C        -1.244511         0.908830         2.108424
 C        -2.536521         1.336112         1.316094
 O        -3.792654         1.666877         1.823043
 C        -2.198135         0.273533         0.253483
 C        -2.474378         0.617267        -1.220745
 C        -2.239912         2.126674        -0.972553
 C        -1.615016         2.242614         0.395444
 H         0.778595         0.039203         0.678810
 H        -1.243732        -0.074768         2.396669
 H        -0.920224         1.444341         2.972690
 H        -4.111125         1.015561         2.483877
 H        -2.291400        -0.743787         0.732742
 H        -1.992782        -0.058259        -1.936643
 H        -3.487152         0.409197        -1.479275
 H        -1.758061         2.655291        -1.731975
 H        -3.237756         2.543452        -0.882618
 H        -1.271269         3.272186         0.725208
