19
Iteration:  4819charge 0 multiplicity 1
 O         0.529516         0.770935         0.234026
 C        -0.813571         1.063888         0.669981
 C        -1.253748         1.194255         2.100112
 C        -2.551311         1.337023         1.321409
 O        -3.789038         1.590532         1.856055
 C        -2.059204         0.150525         0.323068
 C        -2.649272         0.535100        -1.127358
 C        -2.260590         2.064706        -1.135532
 C        -1.701096         2.271449         0.289006
 H         1.031731         0.391250         1.060796
 H        -1.353693         0.455524         2.838587
 H        -0.948219         2.138576         2.589517
 H        -4.543121         1.297923         1.257486
 H        -1.952318        -0.846750         0.810279
 H        -2.017424         0.084864        -1.868331
 H        -3.780066         0.308244        -1.294474
 H        -1.499988         2.166202        -1.872264
 H        -3.118160         2.685590        -1.303653
 H        -1.197997         3.309108         0.365045
