19
Iteration:  1915charge 0 multiplicity 1
 O         0.416868         0.870744         0.055410
 C        -0.834650         1.004731         0.617143
 C        -1.333384         0.995126         2.100931
 C        -2.589024         1.224707         1.310194
 O        -3.748293         1.645272         1.854570
 C        -2.203527         0.203504         0.259879
 C        -2.525999         0.680209        -1.136325
 C        -2.072730         2.186975        -0.979808
 C        -1.714311         2.198025         0.443223
 H         0.655303        -0.127618         0.318270
 H        -1.044490         0.052844         2.721452
 H        -1.088056         2.021160         2.667077
 H        -4.112099         0.899739         2.468306
 H        -2.162531        -0.879025         0.615021
 H        -1.846102         0.189158        -1.849306
 H        -3.596028         0.490861        -1.392341
 H        -1.125582         2.270935        -1.655574
 H        -2.808450         2.925741        -1.369860
 H        -1.290598         3.167150         0.838804
