19
Iteration:  4465charge 0 multiplicity 1
 O         0.493284         0.878586         0.179527
 C        -0.806250         0.993816         0.702265
 C        -1.198493         1.047714         2.195517
 C        -2.539845         1.415861         1.359141
 O        -3.904494         1.646319         1.735440
 C        -2.139155         0.227944         0.310599
 C        -2.545360         0.452944        -1.059377
 C        -2.239410         1.991354        -1.091042
 C        -1.705418         2.245746         0.335999
 H         0.392506         1.067963        -0.754530
 H        -1.114222        -0.000965         2.565849
 H        -0.656990         1.625931         2.887993
 H        -4.041117         2.616573         1.931424
 H        -2.087457        -0.809440         0.644068
 H        -1.818520        -0.102262        -1.736822
 H        -3.509748        -0.013003        -1.293344
 H        -1.201090         2.001678        -1.614711
 H        -3.043728         2.624696        -1.402775
 H        -1.259778         3.263570         0.412726
