19
Iteration:  1105charge 0 multiplicity 1
 O         0.497188         0.707643         0.092672
 C        -0.811176         0.961267         0.700765
 C        -1.273850         0.920394         2.172865
 C        -2.539326         1.268963         1.366545
 O        -3.880032         1.649983         1.893133
 C        -2.140095         0.206732         0.153610
 C        -2.483711         0.752319        -1.259303
 C        -2.210027         2.284818        -1.011077
 C        -1.665307         2.267832         0.444486
 H         0.313762        -0.142034        -0.215483
 H        -1.105773        -0.048664         2.641791
 H        -0.933997         1.798205         2.805188
 H        -4.076540         1.098269         2.661483
 H        -2.150597        -0.827220         0.354378
 H        -1.899205         0.191929        -2.034202
 H        -3.495608         0.467262        -1.512171
 H        -1.466453         2.815566        -1.733996
 H        -3.199517         2.857633        -1.174519
 H        -1.377512         3.299806         0.929951
