19
Iteration:   104
 O         0.402782         0.655300         0.261635
 C        -0.807091         1.032999         0.623380
 C        -1.262741         0.921067         2.125541
 C        -2.479365         1.191789         1.322205
 O        -3.744212         1.521764         1.675561
 C        -2.029208         0.229790         0.161812
 C        -2.575984         0.781904        -1.155645
 C        -2.323409         2.307273        -0.883796
 C        -1.731926         2.276540         0.475968
 H         0.286951         0.430576        -0.769823
 H        -0.920298        -0.033465         2.539514
 H        -1.055232         1.747932         2.830096
 H        -3.733776         2.431280         2.049026
 H        -2.100152        -0.871171         0.484528
 H        -1.982377         0.381103        -1.999889
 H        -3.598235         0.397321        -1.325103
 H        -1.404850         2.812020        -1.473810
 H        -3.191771         2.986594        -1.138258
 H        -1.321552         3.152884         1.087369
