19
Iteration:   245
 O         0.556935         0.783587         0.118648
 C        -0.775677         0.974445         0.699127
 C        -1.245539         0.926224         2.247926
 C        -2.508579         1.309521         1.390735
 O        -3.841719         1.472414         1.705349
 C        -2.171814         0.251936         0.237009
 C        -2.621222         0.756730        -1.225693
 C        -2.235257         2.235978        -1.009750
 C        -1.665613         2.236480         0.405708
 H         0.551310        -0.245594         0.020705
 H        -1.258499        -0.074042         2.725124
 H        -0.874412         1.764146         2.844140
 H        -3.918880         2.331657         2.355605
 H        -2.188132        -0.877639         0.501834
 H        -2.280049         0.241822        -2.153461
 H        -3.735811         0.762985        -1.215288
 H        -1.588503         2.733511        -1.695805
 H        -3.104851         2.871390        -1.106217
 H        -1.356091         3.270217         0.903053
