19
Iteration:   569charge 0 multiplicity 1
 O         0.480790         0.707209         0.169124
 C        -0.757900         1.031761         0.634672
 C        -1.220212         0.972361         2.104481
 C        -2.485142         1.269848         1.323327
 O        -3.815626         1.457184         1.645766
 C        -2.135972         0.173721         0.239567
 C        -2.655802         0.728707        -1.025951
 C        -2.247852         2.265133        -0.952679
 C        -1.690103         2.342220         0.460685
 H         0.547705        -0.081818        -0.275158
 H        -1.155379         0.060903         2.665897
 H        -0.856884         1.808057         2.696745
 H        -3.827580         2.279169         2.241533
 H        -2.161724        -0.866501         0.440737
 H        -2.331033         0.249553        -1.979835
 H        -3.738528         0.636330        -1.008618
 H        -1.346966         2.575394        -1.601838
 H        -2.992603         3.070740        -1.230266
 H        -1.462445         3.399274         0.909831
