19
Iteration:   507
 O         0.442523         0.830028         0.086501
 C        -0.772841         1.045139         0.711988
 C        -1.251433         0.916248         2.182711
 C        -2.496334         1.213588         1.317085
 O        -3.831770         1.576023         1.855681
 C        -2.158549         0.181849         0.233914
 C        -2.581467         0.713431        -1.205645
 C        -2.160383         2.209839        -1.016571
 C        -1.731753         2.241997         0.423298
 H         0.549436        -0.088518         0.071456
 H        -1.134539        -0.110072         2.636279
 H        -0.892957         1.650285         2.914095
 H        -3.786190         2.485334         2.216351
 H        -2.118337        -0.978166         0.369423
 H        -2.199412         0.165676        -2.090074
 H        -3.672640         0.582898        -1.386848
 H        -1.287685         2.479230        -1.638548
 H        -2.878974         3.008013        -1.338881
 H        -1.519774         3.218454         0.721578
