19
Iteration:  3231charge 0 multiplicity 1
 O         0.514084         0.659666         0.250358
 C        -0.811571         1.044656         0.606118
 C        -1.298123         0.868016         2.168465
 C        -2.491851         1.282167         1.346021
 O        -3.810570         1.580748         1.847091
 C        -2.036522         0.238762         0.169175
 C        -2.592022         0.690151        -1.173240
 C        -2.192423         2.309180        -0.999947
 C        -1.774057         2.338675         0.471912
 H         0.394471         0.114116        -0.576353
 H        -1.026900        -0.114576         2.545106
 H        -0.907545         1.642328         2.852278
 H        -4.534525         1.646482         1.141642
 H        -1.914850        -0.853854         0.305139
 H        -2.193334         0.329066        -2.122975
 H        -3.687660         0.503995        -1.266428
 H        -1.350195         2.440465        -1.695082
 H        -3.084092         2.988757        -1.254088
 H        -1.586838         3.372292         0.775391
