19
Iteration:  3640
 O         0.470393         0.675844         0.081493
 C        -0.752883         0.999102         0.642847
 C        -1.265700         0.919273         2.111175
 C        -2.592627         1.253667         1.371379
 O        -3.845878         1.650087         1.849545
 C        -2.146620         0.221523         0.200882
 C        -2.554743         0.754603        -1.172024
 C        -2.162330         2.232474        -0.987635
 C        -1.736896         2.219056         0.504386
 H         1.074594         0.954293         0.879610
 H        -0.917329        -0.083320         2.583315
 H        -0.749020         1.666734         2.715856
 H        -4.473383         1.288944         1.096370
 H        -2.019704        -0.797126         0.585135
 H        -2.053425         0.425677        -2.126691
 H        -3.575757         0.513887        -1.524504
 H        -1.254677         2.442978        -1.547903
 H        -2.896044         3.077713        -1.164329
 H        -1.591243         3.270354         0.866140
