19
Iteration:  4386charge 0 multiplicity 1
 O         0.522328         0.722394         0.359047
 C        -0.768996         1.125918         0.679985
 C        -1.211414         1.099430         2.128621
 C        -2.506251         1.391483         1.226004
 O        -3.778111         1.574159         1.804219
 C        -2.106037         0.254314         0.327743
 C        -2.626766         0.532499        -1.031291
 C        -2.307643         2.022066        -1.104114
 C        -1.696793         2.338599         0.263247
 H         0.450820         0.227451        -0.559963
 H        -1.157474         0.126919         2.594548
 H        -0.827775         1.967369         2.667542
 H        -4.477235         1.170648         1.218435
 H        -2.069505        -0.693063         0.871468
 H        -2.114045         0.055708        -1.920785
 H        -3.625414         0.271825        -1.314613
 H        -1.658153         2.214159        -2.099234
 H        -3.249617         2.602061        -1.256022
 H        -1.483481         3.321848         0.629989
