19
Iteration:  3083
 O         0.452935         0.616802         0.338498
 C        -0.774150         1.054837         0.637607
 C        -1.185422         0.938205         2.108700
 C        -2.589639         1.356408         1.260235
 O        -3.803564         1.555144         1.801402
 C        -1.994888         0.240229         0.173848
 C        -2.621693         0.698141        -1.159691
 C        -2.214773         2.264500        -1.119493
 C        -1.770438         2.297427         0.473977
 H         0.785854         0.897096        -0.574310
 H        -1.289504        -0.043584         2.578652
 H        -0.697379         1.689288         2.781844
 H        -4.066490         0.949467         2.429872
 H        -2.234058        -0.799396         0.433994
 H        -2.489502         0.190926        -2.119117
 H        -3.699950         0.762775        -0.974499
 H        -1.369131         2.644092        -1.738645
 H        -3.095483         2.789871        -1.272684
 H        -1.419369         3.144260         1.027645
