19
Iteration:  1995charge 0 multiplicity 1
 O         0.470814         0.750455         0.198174
 C        -0.777783         0.928255         0.631588
 C        -1.212460         1.038107         2.216649
 C        -2.439462         1.229133         1.385222
 O        -3.785783         1.657512         1.644644
 C        -2.091800         0.169485         0.211697
 C        -2.643542         0.694679        -1.179108
 C        -2.368388         2.295843        -0.956367
 C        -1.670016         2.256770         0.413801
 H         0.760823        -0.245714         0.413876
 H        -1.115185         0.137743         2.862561
 H        -0.713857         1.908362         2.704342
 H        -4.311008         0.949864         2.133402
 H        -2.104752        -0.903808         0.367156
 H        -1.903903         0.464699        -1.961623
 H        -3.668770         0.380108        -1.408919
 H        -1.752473         2.546962        -1.760539
 H        -3.356575         2.807076        -0.991749
 H        -1.350385         3.262827         0.779575
