19
Iteration:  2126charge 0 multiplicity 1
 O         0.491134         0.731748         0.051387
 C        -0.790049         0.973406         0.632518
 C        -1.335225         0.938821         2.119676
 C        -2.509104         1.330219         1.340068
 O        -3.827967         1.616270         1.777657
 C        -2.117497         0.225574         0.352507
 C        -2.438280         0.703963        -1.112331
 C        -2.285602         2.223626        -0.979245
 C        -1.703434         2.308813         0.375478
 H         0.701660        -0.123792         0.229318
 H        -1.442066        -0.136379         2.519117
 H        -0.867138         1.569679         2.942265
 H        -4.233107         1.237192         2.504333
 H        -2.280637        -0.815737         0.627210
 H        -1.703816         0.384335        -1.836644
 H        -3.304629         0.276800        -1.466478
 H        -1.732552         2.662122        -1.743093
 H        -3.245641         2.773517        -1.146363
 H        -1.350146         3.333890         0.665226
