19
Iteration:  1917charge 0 multiplicity 1
 O         0.421023         0.874142         0.054283
 C        -0.845509         0.993368         0.622558
 C        -1.334631         0.995884         2.087703
 C        -2.581080         1.222237         1.308026
 O        -3.727424         1.651735         1.855489
 C        -2.220092         0.188940         0.277756
 C        -2.516933         0.669445        -1.132939
 C        -2.056995         2.203004        -0.982276
 C        -1.725877         2.196846         0.449837
 H         0.636106        -0.091623         0.312257
 H        -1.075063         0.129887         2.698277
 H        -1.167018         1.954907         2.622298
 H        -4.108951         0.878789         2.500064
 H        -2.189142        -0.881352         0.592221
 H        -1.884517         0.171998        -1.864173
 H        -3.519454         0.524134        -1.494694
 H        -1.216124         2.318283        -1.615408
 H        -2.789518         2.921686        -1.360985
 H        -1.412912         3.208391         0.791449
