19
Iteration:  4066charge 0 multiplicity 1
 O         0.482970         0.729031         0.230110
 C        -0.786525         0.978541         0.648356
 C        -1.128906         0.926460         2.187678
 C        -2.500223         1.340261         1.325326
 O        -3.856750         1.673030         1.657982
 C        -2.105563         0.212122         0.301128
 C        -2.590775         0.631118        -1.081601
 C        -2.266952         2.223093        -1.009655
 C        -1.728662         2.295749         0.458360
 H         0.549325         0.599681        -0.837059
 H        -1.333981        -0.068979         2.615960
 H        -0.771062         1.582477         2.978178
 H        -4.445720         1.043161         1.098968
 H        -2.097280        -0.875926         0.350417
 H        -1.919840         0.201731        -1.870959
 H        -3.635399         0.318180        -1.377852
 H        -1.435034         2.512426        -1.657592
 H        -3.145866         2.863346        -1.024977
 H        -1.489763         3.284464         0.879938
