19
Iteration:  3256charge 0 multiplicity 1
 O         0.482811         0.827385         0.184337
 C        -0.783104         0.903762         0.683719
 C        -1.316880         0.898471         2.180349
 C        -2.514000         1.295495         1.258598
 O        -3.781343         1.594578         1.778630
 C        -2.119876         0.216598         0.246951
 C        -2.599460         0.722130        -1.110594
 C        -2.174157         2.310111        -0.973283
 C        -1.646021         2.202048         0.442236
 H         0.383018         0.406186        -0.653834
 H        -1.357421        -0.110238         2.568602
 H        -0.882082         1.577972         2.920558
 H        -4.627177         1.383598         1.186115
 H        -2.163759        -0.882957         0.337240
 H        -2.270202         0.209427        -2.024817
 H        -3.709923         0.602400        -1.151020
 H        -1.392288         2.518429        -1.694517
 H        -3.095347         2.972769        -1.162001
 H        -1.257038         3.166906         0.851015
