19
Iteration:   131charge 0 multiplicity 1
 O         0.566850         0.640262         0.171799
 C        -0.781851         0.885911         0.625694
 C        -1.266220         0.918468         2.254849
 C        -2.484353         1.366466         1.394379
 O        -3.904352         1.447077         1.691027
 C        -2.162833         0.263313         0.232218
 C        -2.571208         0.804331        -1.154402
 C        -2.326062         2.302331        -0.974749
 C        -1.587056         2.303525         0.355359
 H         0.752078         1.361014        -0.584274
 H        -1.395377        -0.125467         2.645824
 H        -0.677699         1.541213         2.957123
 H        -4.053610         2.062060         2.443602
 H        -2.280419        -0.773189         0.408064
 H        -1.893969         0.258892        -1.844776
 H        -3.549332         0.498297        -1.563328
 H        -1.875176         2.911980        -1.686596
 H        -3.314370         2.729647        -0.852923
 H        -1.154908         3.167713         0.780193
