19
Iteration:  1158
 O         0.473768         0.641379         0.165703
 C        -0.786672         1.051253         0.640112
 C        -1.208425         0.841740         2.141383
 C        -2.549640         1.332603         1.335198
 O        -3.938368         1.647451         1.903618
 C        -2.138540         0.268175         0.227688
 C        -2.533661         0.758033        -1.234656
 C        -2.211640         2.199620        -1.002533
 C        -1.653237         2.261500         0.394089
 H         0.661943         1.122785        -0.577191
 H        -1.357099        -0.146332         2.277588
 H        -0.705543         1.493745         2.937572
 H        -4.054322         0.823472         2.472588
 H        -2.031310        -0.718563         0.600918
 H        -1.730507         0.248926        -1.889786
 H        -3.554890         0.368303        -1.516406
 H        -1.463513         2.624817        -1.771720
 H        -3.092550         2.916016        -1.134390
 H        -1.262550         3.266669         0.791324
