19
Iteration:  4394
 O         0.552913         0.706689         0.386866
 C        -0.801906         1.126072         0.629007
 C        -1.156653         1.070783         2.088201
 C        -2.593026         1.453576         1.305338
 O        -3.812947         1.521935         1.835045
 C        -2.116863         0.247290         0.386193
 C        -2.570913         0.536745        -1.045464
 C        -2.304570         2.048775        -1.190590
 C        -1.674997         2.343249         0.205042
 H         0.489157         0.314888        -0.551663
 H        -0.954171         0.179249         2.661330
 H        -0.953543         1.962415         2.787000
 H        -4.579118         1.481191         1.208237
 H        -2.167370        -0.854035         0.561631
 H        -2.116093        -0.098499        -1.818024
 H        -3.684861         0.319373        -1.112187
 H        -1.623509         2.275760        -1.989425
 H        -3.204965         2.678155        -1.034139
 H        -1.409181         3.343761         0.527900
