19
Iteration:   982charge 0 multiplicity 1
 O         0.475615         0.727391         0.043580
 C        -0.799989         0.952676         0.618010
 C        -1.340317         0.933998         2.117369
 C        -2.568518         1.337495         1.314170
 O        -3.828830         1.578095         1.937201
 C        -2.193085         0.277761         0.226425
 C        -2.450062         0.749545        -1.194162
 C        -2.189100         2.255261        -0.976784
 C        -1.669556         2.255148         0.453189
 H         0.825054        -0.220237         0.025065
 H        -1.296286         0.103282         2.716204
 H        -0.836136         1.761728         2.699317
 H        -4.082596         0.761814         2.248867
 H        -2.379194        -0.757600         0.488720
 H        -1.693030         0.294261        -1.880498
 H        -3.465155         0.532180        -1.576825
 H        -1.441241         2.630018        -1.731467
 H        -3.154227         2.883071        -0.971845
 H        -1.300632         3.163512         0.899914
