19
Iteration:  3680
 O         0.408334         0.731242         0.018508
 C        -0.828542         0.958028         0.704792
 C        -1.353172         0.907912         2.178184
 C        -2.526433         1.340520         1.367437
 O        -3.767420         1.542013         1.733196
 C        -2.118712         0.253701         0.311793
 C        -2.534033         0.773645        -1.155055
 C        -2.223822         2.231608        -0.940257
 C        -1.586341         2.290845         0.416623
 H         1.183057         0.563430         0.479202
 H        -1.593803        -0.127087         2.496073
 H        -0.979577         1.661159         2.902670
 H        -4.314477         1.060805         1.179047
 H        -2.331341        -0.777844         0.637042
 H        -1.817890         0.272776        -1.796737
 H        -3.540261         0.427301        -1.491134
 H        -1.613045         2.624961        -1.769584
 H        -3.119332         2.918689        -0.965809
 H        -1.075165         3.106495         1.006598
