19
Iteration:   546
 O         0.526662         0.863249         0.055275
 C        -0.810318         0.945005         0.723697
 C        -1.141031         0.900839         2.255401
 C        -2.558182         1.361288         1.406467
 O        -3.917609         1.449625         1.651140
 C        -2.150660         0.237367         0.322578
 C        -2.696023         0.755256        -1.102295
 C        -2.179779         2.203108        -1.009426
 C        -1.598782         2.206689         0.395881
 H         0.485592         0.091751        -0.630809
 H        -1.355965        -0.055217         2.647686
 H        -0.683071         1.590798         2.981595
 H        -4.036398         2.349849         1.873437
 H        -2.220630        -0.747261         0.594007
 H        -2.289583         0.217093        -1.973224
 H        -3.776796         0.714587        -1.142859
 H        -1.399619         2.518547        -1.782135
 H        -2.918791         3.008297        -1.122953
 H        -0.933133         3.161511         0.655213
