19
Iteration:  3423
 O         0.443178         0.721379         0.125046
 C        -0.838237         0.970625         0.655991
 C        -1.238049         0.959169         2.151461
 C        -2.566289         1.310278         1.370292
 O        -3.810265         1.506566         1.792500
 C        -2.238178         0.241429         0.253645
 C        -2.598448         0.706423        -1.059121
 C        -2.161331         2.258444        -1.055856
 C        -1.591551         2.273253         0.430808
 H         1.112752         1.154355         0.585108
 H        -0.980190        -0.052701         2.558036
 H        -0.846939         1.800199         2.717406
 H        -4.456040         1.277117         1.151713
 H        -2.176069        -0.869122         0.245738
 H        -1.967023         0.333859        -1.941943
 H        -3.575557         0.594457        -1.524234
 H        -1.387186         2.500531        -1.814514
 H        -2.990215         2.949384        -1.077235
 H        -1.081127         3.198390         0.768958
