19
Iteration:  1781
 O         0.398381         0.806302         0.007968
 C        -0.885133         0.911727         0.636299
 C        -1.293187         0.964219         2.198216
 C        -2.578902         1.321183         1.304376
 O        -3.771646         1.666251         1.888886
 C        -2.108271         0.191095         0.274805
 C        -2.419214         0.693024        -1.172007
 C        -2.220312         2.230200        -1.055598
 C        -1.766007         2.234430         0.395079
 H         0.827174        -0.029864         0.443909
 H        -1.291421         0.000923         2.916643
 H        -0.818750         1.831285         2.887297
 H        -3.884500         1.167385         2.781119
 H        -2.221590        -0.860204         0.764496
 H        -1.554794         0.298716        -1.751650
 H        -3.225721         0.129440        -1.744405
 H        -1.202922         2.394129        -1.708981
 H        -3.028008         2.937217        -1.377872
 H        -1.384963         3.205043         0.765594
