19
Iteration:   296
 O         0.554604         0.761611         0.235722
 C        -0.802221         0.959660         0.651065
 C        -1.165439         0.900611         2.174523
 C        -2.478766         1.328816         1.368908
 O        -3.853561         1.500355         1.697823
 C        -2.232103         0.309224         0.258523
 C        -2.575684         0.723814        -1.192845
 C        -2.298113         2.228399        -0.996104
 C        -1.634301         2.273710         0.362649
 H         0.504900         0.196446        -0.533325
 H        -1.199456        -0.127694         2.478735
 H        -0.908314         1.639862         2.996790
 H        -3.864573         1.823805         2.604377
 H        -2.747974        -0.520781         0.604046
 H        -1.861803         0.206628        -1.866821
 H        -3.555919         0.448071        -1.558613
 H        -1.859424         2.897135        -1.759229
 H        -3.327064         2.659515        -0.866665
 H        -1.151094         3.068483         0.751689
