19
Iteration:  3702
 O         0.464623         0.622148         0.107882
 C        -0.836323         0.997990         0.652645
 C        -1.174821         0.929873         2.182018
 C        -2.548353         1.259698         1.294393
 O        -3.908327         1.599546         1.835163
 C        -2.091911         0.226279         0.227389
 C        -2.503402         0.768090        -1.197262
 C        -2.198253         2.307694        -0.963916
 C        -1.721027         2.305762         0.434945
 H         1.080396         0.232245         0.848207
 H        -0.968862        -0.103300         2.534571
 H        -0.721436         1.852422         2.543259
 H        -4.625041         1.139895         1.219506
 H        -2.078696        -0.833091         0.539670
 H        -1.964325         0.309637        -2.020252
 H        -3.558756         0.368870        -1.203068
 H        -1.533621         2.712521        -1.731954
 H        -3.059642         3.057029        -1.032015
 H        -1.584114         3.346668         0.960616
