19
Iteration:  3706
 O         0.466575         0.611460         0.150086
 C        -0.843291         0.989190         0.672080
 C        -1.146697         0.954765         2.122863
 C        -2.603111         1.244415         1.320264
 O        -3.885337         1.595636         1.837453
 C        -2.052344         0.208649         0.230773
 C        -2.527959         0.795420        -1.213149
 C        -2.206370         2.312752        -0.970773
 C        -1.744707         2.323069         0.407614
 H         1.029952         0.229499         0.760783
 H        -0.953779        -0.094519         2.547681
 H        -0.680258         1.838930         2.581703
 H        -4.547521         1.201296         1.307327
 H        -2.104441        -0.843559         0.567810
 H        -1.971916         0.298786        -2.060474
 H        -3.521613         0.356791        -1.334854
 H        -1.467529         2.668671        -1.698973
 H        -3.016807         3.089613        -1.042566
 H        -1.575664         3.177363         1.045255
