19
Iteration:   453
 O         0.448402         0.643223         0.148529
 C        -0.803718         0.998998         0.661668
 C        -1.296717         0.970560         2.187520
 C        -2.453645         1.275004         1.327637
 O        -3.734075         1.471202         1.776610
 C        -2.245360         0.293829         0.249189
 C        -2.542769         0.768172        -1.177034
 C        -2.337883         2.259135        -1.106821
 C        -1.613561         2.325254         0.402950
 H         0.911527         0.715787         0.977291
 H        -1.304137        -0.096038         2.604161
 H        -0.864909         1.813009         2.761535
 H        -3.730596         1.769527         2.728448
 H        -2.362665        -0.871266         0.344281
 H        -1.660391         0.338340        -1.708997
 H        -3.507060         0.315557        -1.548260
 H        -1.951999         2.642264        -2.029038
 H        -3.294713         2.776764        -0.915217
 H        -1.141318         3.242881         0.742662
