19
Iteration:   263charge 0 multiplicity 1
 O         0.519317         0.706443         0.147479
 C        -0.759470         1.047878         0.665536
 C        -1.321181         0.977435         2.152862
 C        -2.518285         1.156780         1.234143
 O        -3.825129         1.593396         1.683912
 C        -1.994452         0.182189         0.195092
 C        -2.620861         0.750255        -1.071322
 C        -2.296476         2.282400        -0.932112
 C        -1.694157         2.263043         0.463857
 H         0.515590        -0.224482        -0.298702
 H        -1.234468         0.028902         2.667598
 H        -1.160400         1.853390         2.858916
 H        -3.642902         2.181582         2.568298
 H        -2.122069        -0.841903         0.365909
 H        -2.069078         0.313923        -1.930232
 H        -3.664543         0.471990        -1.085976
 H        -1.572307         2.623074        -1.687207
 H        -3.199391         2.932062        -0.956793
 H        -1.494815         3.117436         1.001467
