19
Iteration:  4650
 O         0.520570         0.747954         0.288869
 C        -0.813947         1.032542         0.650481
 C        -1.251061         1.178553         2.166437
 C        -2.551829         1.371331         1.293934
 O        -3.826485         1.469199         1.751399
 C        -2.097697         0.258729         0.355546
 C        -2.609749         0.537517        -1.105283
 C        -2.257225         2.029014        -1.110332
 C        -1.642267         2.297760         0.340349
 H         0.640433         1.063320        -0.621014
 H        -0.998903         0.248668         2.773446
 H        -0.932601         2.106922         2.600219
 H        -4.169994         2.365800         1.981371
 H        -2.233326        -0.736206         0.768200
 H        -2.064350        -0.144291        -1.835562
 H        -3.658993         0.339685        -1.318075
 H        -1.460012         2.076803        -1.899089
 H        -3.172132         2.553603        -1.335000
 H        -1.367734         3.352391         0.466483
