19
Iteration:  1098charge 0 multiplicity 1
 O         0.534148         0.707441         0.094649
 C        -0.791685         0.978281         0.656343
 C        -1.263266         0.877460         2.159097
 C        -2.508760         1.237683         1.360210
 O        -3.916941         1.657402         1.869479
 C        -2.141049         0.325458         0.196931
 C        -2.491949         0.754997        -1.208434
 C        -2.233470         2.252524        -1.060665
 C        -1.707494         2.291039         0.463563
 H         0.580245        -0.283864        -0.135429
 H        -1.220395        -0.171893         2.692147
 H        -0.903093         1.536142         2.893264
 H        -4.070312         1.075688         2.538916
 H        -2.210281        -0.810221         0.389842
 H        -1.941508         0.210848        -1.942541
 H        -3.561207         0.601048        -1.381311
 H        -1.510726         2.647217        -1.711246
 H        -3.157685         2.748305        -1.087529
 H        -1.228314         3.186137         0.820480
