19
Iteration:  4152charge 0 multiplicity 1
 O         0.417166         0.722246         0.186057
 C        -0.792592         1.060942         0.670607
 C        -1.313481         0.962621         2.128767
 C        -2.538073         1.393721         1.334952
 O        -3.767862         1.593362         1.895140
 C        -2.077923         0.227398         0.296646
 C        -2.552452         0.593932        -1.195215
 C        -2.239369         2.128047        -1.171889
 C        -1.665653         2.328768         0.359253
 H         1.066049         0.959656         0.835406
 H        -1.346708        -0.024464         2.614375
 H        -1.188078         1.760682         2.802995
 H        -4.242462         0.785383         2.062185
 H        -2.178014        -0.812135         0.638012
 H        -2.061261         0.120146        -1.973489
 H        -3.586977         0.308878        -1.442327
 H        -1.353228         2.375233        -1.721387
 H        -2.904751         2.917087        -1.529698
 H        -1.438440         3.392788         0.647239
