19
Iteration:  3849charge 0 multiplicity 1
 O         0.415813         0.750251         0.186045
 C        -0.901579         1.008414         0.635064
 C        -1.197393         0.894189         2.149225
 C        -2.510876         1.270716         1.343078
 O        -3.802610         1.477556         1.740537
 C        -2.183563         0.267369         0.281072
 C        -2.567399         0.736627        -1.154751
 C        -2.202644         2.290579        -1.053976
 C        -1.608195         2.301561         0.401951
 H         0.656071        -0.004306         0.677915
 H        -1.261165        -0.144471         2.554343
 H        -0.874072         1.745630         2.799692
 H        -3.831513         2.096986         2.430848
 H        -2.131012        -0.793934         0.467055
 H        -1.977916         0.171498        -1.927273
 H        -3.471553         0.570038        -1.670901
 H        -1.445589         2.585351        -1.831369
 H        -3.116379         2.913393        -1.181071
 H        -1.301742         3.154682         0.940824
