19
Iteration:  1698
 O         0.529992         0.820653         0.203788
 C        -0.787129         1.004738         0.732644
 C        -1.204736         1.028969         2.167568
 C        -2.479453         1.238068         1.395812
 O        -3.823684         1.653848         1.634336
 C        -2.066756         0.113795         0.222123
 C        -2.758128         0.762479        -1.058479
 C        -2.314573         2.226020        -1.041185
 C        -1.620333         2.164504         0.331749
 H         0.837230        -0.038184         0.180959
 H        -1.040556         0.033498         2.595262
 H        -0.729677         1.803999         2.781346
 H        -4.345812         0.960481         1.774834
 H        -2.044227        -0.964539         0.364089
 H        -2.420731         0.172266        -1.932985
 H        -3.804764         0.634400        -0.881560
 H        -1.647055         2.465624        -1.785373
 H        -3.124611         2.941032        -1.044585
 H        -1.204041         3.121612         0.841854
