19
Iteration:  4651
 O         0.519204         0.743294         0.294088
 C        -0.816433         1.039373         0.661218
 C        -1.244229         1.181486         2.160355
 C        -2.555555         1.373989         1.280746
 O        -3.820103         1.467179         1.753899
 C        -2.097343         0.250480         0.353941
 C        -2.611812         0.535289        -1.105884
 C        -2.258414         2.039148        -1.120817
 C        -1.649588         2.293218         0.349167
 H         0.631648         1.056591        -0.560623
 H        -0.970187         0.280646         2.778704
 H        -0.920371         2.097804         2.603606
 H        -4.161040         2.367144         1.997022
 H        -2.226334        -0.764466         0.736268
 H        -2.049516        -0.145170        -1.850842
 H        -3.703401         0.353481        -1.294034
 H        -1.463073         2.093986        -1.910413
 H        -3.164998         2.539513        -1.324589
 H        -1.355557         3.363367         0.431181
