19
Iteration:  3945charge 0 multiplicity 1
 O         0.461415         0.850388        -0.062083
 C        -0.776256         0.966418         0.733121
 C        -1.364839         0.942110         2.244108
 C        -2.544361         1.200416         1.270859
 O        -3.814951         1.659144         1.734269
 C        -2.137770         0.202236         0.334386
 C        -2.536254         0.758696        -1.085967
 C        -2.149416         2.199183        -0.939336
 C        -1.619774         2.194947         0.465003
 H         0.640458        -0.022086         0.099895
 H        -1.355229        -0.105746         2.719195
 H        -1.163477         1.692036         3.010521
 H        -4.458166         1.513208         1.031072
 H        -2.034301        -0.860662         0.600184
 H        -2.056070         0.356133        -2.011514
 H        -3.587125         0.456891        -1.334602
 H        -1.474928         2.330936        -1.776319
 H        -3.026120         2.930832        -0.906876
 H        -1.280024         3.171130         0.855781
