19
Iteration:  1365
 O         0.456431         0.716501         0.307641
 C        -0.827170         0.924235         0.663029
 C        -1.123111         1.008658         2.115782
 C        -2.503697         1.167851         1.313880
 O        -3.746268         1.606353         1.642315
 C        -2.155266         0.150157         0.203631
 C        -2.760453         0.722773        -1.034506
 C        -2.310974         2.276951        -1.009842
 C        -1.569405         2.279173         0.355854
 H         0.751446         1.661781         0.194032
 H        -0.731853         0.127218         2.657178
 H        -0.724332         2.074107         2.556908
 H        -4.265003         0.898482         1.909508
 H        -2.156241        -0.958027         0.434607
 H        -2.386509         0.265923        -1.936001
 H        -3.860155         0.726002        -1.138411
 H        -1.739121         2.594790        -1.860229
 H        -3.064935         3.013289        -0.864411
 H        -1.182708         3.238354         0.862402
