19
Iteration:  3853charge 0 multiplicity 1
 O         0.414183         0.727669         0.209937
 C        -0.901956         1.007511         0.625881
 C        -1.181788         0.916980         2.145993
 C        -2.532283         1.278145         1.331603
 O        -3.796837         1.501148         1.766435
 C        -2.144700         0.237688         0.197088
 C        -2.545638         0.731961        -1.156203
 C        -2.217902         2.326067        -1.062077
 C        -1.634566         2.279020         0.407487
 H         0.815823        -0.072143         0.747276
 H        -1.263692        -0.031362         2.615972
 H        -0.884350         1.717123         2.834181
 H        -3.997403         2.033318         2.619172
 H        -2.158828        -0.846956         0.469956
 H        -1.990220         0.220954        -1.938733
 H        -3.608177         0.491980        -1.506618
 H        -1.453591         2.530827        -1.824830
 H        -3.093880         2.926286        -1.145564
 H        -1.339039         3.214435         0.932226
