19
Iteration:  1408charge 0 multiplicity 1
 O         0.508892         0.666304         0.041636
 C        -0.728232         1.011884         0.641343
 C        -1.289603         0.894609         2.228357
 C        -2.530407         1.323722         1.356994
 O        -3.810807         1.604720         1.783925
 C        -2.108015         0.296673         0.278630
 C        -2.591468         0.656623        -1.100635
 C        -2.263750         2.232389        -1.072604
 C        -1.722588         2.377009         0.373516
 H         1.241128         0.861331         0.589861
 H        -1.367170        -0.111815         2.599920
 H        -0.825994         1.596235         2.886622
 H        -4.275524         0.747853         2.171533
 H        -2.247910        -0.792426         0.696947
 H        -2.150250         0.084455        -1.867384
 H        -3.621484         0.282885        -1.194736
 H        -1.525837         2.542511        -1.815935
 H        -3.192910         2.754742        -1.263355
 H        -1.392571         3.363576         0.821599
