19
Iteration:  3125charge 0 multiplicity 1
 O         0.540058         0.823307         0.208218
 C        -0.822330         0.890298         0.665418
 C        -1.241239         0.900615         2.193904
 C        -2.502887         1.307402         1.251525
 O        -3.913771         1.600709         1.675304
 C        -2.215507         0.203514         0.217376
 C        -2.576334         0.713393        -1.087755
 C        -2.184659         2.214516        -0.942721
 C        -1.586284         2.220499         0.408037
 H         0.447366         1.129568        -0.767962
 H        -1.354128        -0.061294         2.640482
 H        -0.820886         1.747398         2.755324
 H        -3.724210         1.505625         2.628283
 H        -2.360925        -0.874793         0.406738
 H        -2.101109         0.165802        -1.889735
 H        -3.696051         0.691256        -1.084754
 H        -1.691661         2.704607        -1.765546
 H        -3.109368         2.781636        -0.926950
 H        -1.056959         3.194357         0.706959
