19
Iteration:  1451
 O         0.420386         0.702555        -0.066038
 C        -0.845060         0.918237         0.692546
 C        -1.214589         1.058531         2.214084
 C        -2.549526         1.276947         1.382915
 O        -3.809696         1.675632         1.890618
 C        -2.199501         0.211344         0.245455
 C        -2.363789         0.671276        -1.241047
 C        -2.208652         2.253553        -1.046446
 C        -1.788025         2.187783         0.442228
 H         0.966658         0.944291         0.634915
 H        -1.190631         0.233547         2.953856
 H        -1.036398         1.967517         2.598154
 H        -4.035704         0.895538         2.611635
 H        -2.418727        -0.945007         0.436009
 H        -1.673821         0.042737        -1.765353
 H        -3.348591         0.473519        -1.731571
 H        -1.377812         2.646413        -1.667605
 H        -3.141771         2.817501        -1.249525
 H        -1.488081         3.117058         1.009189
