19
Iteration:  2367
 O         0.421843         0.868629         0.151252
 C        -0.856393         0.943149         0.626567
 C        -1.305938         0.831636         2.073997
 C        -2.489408         1.359599         1.260685
 O        -3.759240         1.696050         1.789319
 C        -2.063547         0.165519         0.247944
 C        -2.566669         0.658931        -1.075417
 C        -2.185872         2.213445        -1.016841
 C        -1.705411         2.282785         0.467105
 H         0.810099         0.224780         0.649778
 H        -1.398688        -0.210600         2.507783
 H        -0.873429         1.572768         2.759702
 H        -4.115714         0.849714         2.029193
 H        -2.235013        -0.908561         0.496088
 H        -2.270544         0.138939        -2.048846
 H        -3.689599         0.609620        -0.934549
 H        -1.410846         2.299167        -1.747709
 H        -3.067770         2.853626        -1.320535
 H        -1.268564         3.264405         0.857115
