19
Iteration:  4709charge 0 multiplicity 1
 O         0.523360         0.838507         0.347145
 C        -0.776293         1.003362         0.646663
 C        -1.247478         1.115360         2.157245
 C        -2.513739         1.420768         1.285836
 O        -3.855784         1.554208         1.716844
 C        -2.108751         0.195096         0.378887
 C        -2.583308         0.504039        -1.110073
 C        -2.295984         2.055529        -1.129879
 C        -1.639267         2.268262         0.252193
 H         0.667434         0.436111        -0.620912
 H        -1.288100         0.151761         2.616467
 H        -0.688661         1.860835         2.787116
 H        -3.703621         1.680853         2.649703
 H        -2.289239        -0.775780         0.904166
 H        -2.004186        -0.116011        -1.826165
 H        -3.754808         0.373618        -1.118776
 H        -1.847191         2.471352        -2.047521
 H        -3.206694         2.644872        -1.240027
 H        -1.584262         3.416676         0.414267
