19
Iteration:   445charge 0 multiplicity 1
 O         0.453223         0.621141         0.158000
 C        -0.796617         0.969507         0.658680
 C        -1.230511         0.939848         2.166281
 C        -2.493784         1.334953         1.371924
 O        -3.830496         1.499731         1.759451
 C        -2.141643         0.279349         0.226457
 C        -2.524822         0.755759        -1.174234
 C        -2.388257         2.294905        -1.054834
 C        -1.635209         2.288202         0.358561
 H         1.174362         0.705746         0.727649
 H        -1.237864        -0.010874         2.777984
 H        -0.828202         1.751499         2.811597
 H        -3.834094         1.786269         2.658872
 H        -2.095155        -0.801695         0.432709
 H        -1.831999         0.259854        -1.876633
 H        -3.594208         0.468635        -1.426143
 H        -1.734403         2.691937        -1.821018
 H        -3.369546         2.749974        -1.025341
 H        -1.087898         3.281897         0.727164
