19
Iteration:   669charge 0 multiplicity 1
 O         0.389181         0.744580        -0.047627
 C        -0.810359         0.990083         0.660495
 C        -1.220424         0.910558         2.136210
 C        -2.592448         1.202660         1.323941
 O        -3.905619         1.553486         1.790102
 C        -2.118852         0.255480         0.237760
 C        -2.529880         0.772409        -1.043279
 C        -2.148105         2.239678        -0.930584
 C        -1.662526         2.211810         0.447866
 H         1.222081         0.731864         0.456653
 H        -1.264105        -0.047109         2.681569
 H        -0.876336         1.649348         2.814076
 H        -3.833426         2.452113         1.923521
 H        -2.005299        -0.820350         0.528981
 H        -1.966022         0.258238        -1.868613
 H        -3.581978         0.472957        -1.291674
 H        -1.301450         2.444539        -1.674454
 H        -2.824314         3.105443        -1.147143
 H        -1.327368         3.158186         1.009942
