19
Iteration:   349
 O         0.421162         0.683586         0.204211
 C        -0.820170         1.045663         0.738293
 C        -1.177555         0.899571         2.190918
 C        -2.500346         1.227383         1.313661
 O        -3.785517         1.533320         1.873282
 C        -2.155414         0.178324         0.173181
 C        -2.584943         0.774191        -1.206566
 C        -2.157843         2.222167        -1.121958
 C        -1.782937         2.291982         0.429615
 H         0.553642         1.413207        -0.353975
 H        -1.223472         0.009365         2.766548
 H        -0.738325         1.646049         2.850234
 H        -3.875395         2.410732         1.994440
 H        -2.109462        -0.859895         0.244870
 H        -2.212256         0.198096        -2.053805
 H        -3.653616         0.750684        -1.440190
 H        -1.156317         2.427291        -1.675404
 H        -3.046769         2.832571        -1.431442
 H        -1.559048         3.190945         0.970464
