19
Iteration:  1919
 O         0.425039         0.872553         0.055077
 C        -0.859544         0.981687         0.632831
 C        -1.329158         0.998272         2.079315
 C        -2.569330         1.221449         1.304406
 O        -3.713869         1.653489         1.862402
 C        -2.233538         0.170678         0.292418
 C        -2.506518         0.659862        -1.130146
 C        -2.048356         2.214844        -0.989234
 C        -1.736419         2.202169         0.453558
 H         0.626143         0.005307         0.279963
 H        -1.126981         0.189999         2.686193
 H        -1.221903         1.871911         2.591202
 H        -4.063670         0.946223         2.458477
 H        -2.229965        -0.871788         0.553258
 H        -1.912170         0.143148        -1.887426
 H        -3.471987         0.562433        -1.600662
 H        -1.257406         2.382211        -1.595523
 H        -2.785524         2.920004        -1.341356
 H        -1.541228         3.230431         0.766099
