19
Iteration:  3298
 O         0.529499         0.658603         0.246787
 C        -0.910230         0.981044         0.720246
 C        -1.208500         0.890022         2.146607
 C        -2.520566         1.369558         1.279024
 O        -3.800266         1.506817         1.873305
 C        -2.089808         0.213286         0.210665
 C        -2.570495         0.724534        -1.173330
 C        -2.192239         2.330241        -1.048577
 C        -1.756160         2.282827         0.377262
 H         0.639496         0.784355        -0.700099
 H        -1.155246        -0.042902         2.647181
 H        -0.815986         1.764209         2.690723
 H        -4.495349         1.518071         1.224760
 H        -2.290253        -0.765901         0.620186
 H        -2.037543         0.267080        -1.990271
 H        -3.654026         0.463355        -1.250618
 H        -1.374524         2.664569        -1.675379
 H        -3.020899         3.110716        -1.141321
 H        -1.482538         3.258764         0.832931
