19
Iteration:  2452
 O         0.527479         0.750555         0.141256
 C        -0.759715         0.999331         0.660577
 C        -1.267418         0.906769         2.188254
 C        -2.572194         1.292114         1.394785
 O        -3.871471         1.690731         1.760835
 C        -2.035929         0.255798         0.240199
 C        -2.590134         0.674816        -1.178349
 C        -2.262190         2.224948        -1.050808
 C        -1.698036         2.255432         0.430829
 H         0.667014        -0.226450        -0.209685
 H        -1.129519        -0.068856         2.623037
 H        -0.768783         1.599603         2.850171
 H        -4.291680         0.973094         2.358603
 H        -2.005761        -0.843919         0.401286
 H        -2.025546         0.219141        -1.949016
 H        -3.660020         0.311954        -1.330437
 H        -1.582103         2.629075        -1.805983
 H        -3.112660         2.952807        -1.074390
 H        -1.358845         3.269295         0.786394
