19
Iteration:  1741
 C         0.867412         2.864579        -1.747373
 C         1.904564         1.871669        -1.325624
 C         3.106058         1.450211        -2.258992
 C         3.261350         0.282585        -1.313553
 O         3.639283        -0.985628        -1.678805
 C         1.802192         0.389520        -0.867434
 C         2.948803         0.760779         0.123028
 O         3.611205        -0.117825         1.027272
 C         2.710594         2.274424         0.051091
 H         0.032128         3.233748        -1.108701
 H         1.189371         3.876560        -2.082924
 H         0.439332         2.464880        -2.742255
 H         2.798614         1.058120        -3.256241
 H         4.069966         2.095376        -2.358228
 H         4.543400        -1.160440        -1.317951
 H         0.963934        -0.386521        -0.802630
 H         3.305204        -0.114334         1.985895
 H         2.053746         2.798549         0.850011
 H         3.621720         2.985058        -0.062126
