19
Iteration:  4219
 C         0.904484         2.829001        -1.752166
 C         1.913743         1.903195        -1.316053
 C         3.083097         1.453614        -2.257628
 C         3.170993         0.237766        -1.391796
 O         3.900047        -0.947961        -1.562423
 C         1.778966         0.435995        -0.828064
 C         2.897410         0.718095         0.079435
 O         3.333871        -0.066948         1.131756
 C         2.832247         2.218352         0.046622
 H         0.006861         2.886645        -1.146905
 H         1.442906         3.816065        -1.995847
 H         0.489185         2.496630        -2.730038
 H         2.629621         1.088260        -3.225251
 H         4.006785         2.073872        -2.590067
 H         3.761097        -1.236354        -2.530243
 H         0.939234        -0.328860        -0.841253
 H         4.284756         0.250856         1.226286
 H         2.347310         2.849093         0.805811
 H         3.611378         2.714067        -0.410798
