19
Iteration:  4486charge 0 multiplicity 1
 C         0.912981         2.831459        -1.857960
 C         1.965898         1.938364        -1.315490
 C         3.117579         1.429049        -2.223518
 C         3.169381         0.248548        -1.297344
 O         3.929400        -0.958949        -1.622036
 C         1.717137         0.423613        -0.875750
 C         2.893986         0.757652         0.143606
 O         3.518333        -0.032007         1.108965
 C         2.592322         2.197933         0.075148
 H         0.159233         2.973202        -1.026192
 H         1.247117         3.867860        -1.960964
 H         0.619569         2.393415        -2.819698
 H         2.796865         1.359779        -3.224121
 H         4.147838         1.772111        -2.246971
 H         3.394322        -1.412480        -2.345498
 H         0.784002        -0.189134        -0.777665
 H         4.354383        -0.351073         0.667860
 H         1.803526         2.484527         0.707953
 H         3.340432         2.967243         0.080645
