19
Iteration:  2352charge 0 multiplicity 1
 C         0.852538         2.867346        -1.719426
 C         1.989609         1.955426        -1.246892
 C         3.035715         1.422081        -2.317281
 C         3.145656         0.241468        -1.408484
 O         3.845864        -0.920787        -1.651575
 C         1.745807         0.458822        -0.897522
 C         2.948190         0.708269         0.038667
 O         3.513494        -0.082664         1.130890
 C         2.897527         2.198430        -0.011840
 H         0.186199         3.015809        -0.877231
 H         1.136524         3.847067        -2.074520
 H         0.216240         2.189883        -2.286031
 H         2.420107         0.973036        -3.105925
 H         3.906147         2.051443        -2.602751
 H         3.596912        -1.587615        -0.935171
 H         0.817024        -0.089719        -0.933050
 H         2.821138        -0.142402         1.858712
 H         2.338782         2.646805         0.787808
 H         3.682552         2.858910        -0.135726
