19
Iteration:  3533charge 0 multiplicity 1
 C         0.798624         2.765644        -1.822087
 C         1.981019         1.943045        -1.197252
 C         3.115513         1.460881        -2.323142
 C         3.201639         0.228014        -1.474736
 O         3.742367        -1.029668        -1.677806
 C         1.776359         0.486247        -0.780699
 C         3.027516         0.696049        -0.012811
 O         3.458164        -0.067103         1.101036
 C         2.795103         2.221667         0.117354
 H         0.023592         3.144297        -1.086788
 H         1.307837         3.747266        -2.027452
 H         0.462221         2.526447        -2.866288
 H         2.492491         1.422655        -3.259131
 H         4.023647         2.202678        -2.381029
 H         4.026754        -1.264758        -0.730109
 H         0.798366         0.141584        -0.626655
 H         3.970901         0.483818         1.752536
 H         1.861313         2.641092         0.771182
 H         3.713602         2.798747         0.213058
