19
Iteration:  3829
 C         0.858442         2.791022        -1.811979
 C         1.966410         1.937219        -1.253400
 C         3.101033         1.473801        -2.286869
 C         3.191576         0.194661        -1.355744
 O         3.738251        -0.994124        -1.731852
 C         1.781219         0.452960        -0.929007
 C         3.069703         0.746084         0.024724
 O         3.392698        -0.042407         1.233720
 C         2.814861         2.272741         0.109690
 H         0.090086         2.940104        -0.963146
 H         1.134239         3.662035        -2.413162
 H         0.254986         2.301279        -2.623665
 H         2.530578         1.146985        -3.135368
 H         3.920376         2.193921        -2.565726
 H         3.916086        -1.538338        -0.913387
 H         0.836285        -0.105683        -0.792803
 H         4.354118        -0.022799         1.057210
 H         2.111902         2.328143         0.997018
 H         3.594263         3.184302        -0.026122
