19
Iteration:  3772
 C         0.886861         2.897738        -1.699422
 C         1.923213         1.909081        -1.325648
 C         3.053866         1.373184        -2.294736
 C         3.154831         0.236173        -1.329193
 O         3.953602        -0.892943        -1.613676
 C         1.677782         0.464270        -0.760290
 C         2.927849         0.701609         0.046060
 O         3.366755        -0.118670         1.088715
 C         2.869844         2.165096        -0.105510
 H         0.142423         3.213130        -0.883404
 H         1.390773         3.920902        -1.934045
 H         0.180654         2.532557        -2.503073
 H         2.478538         1.172353        -3.237336
 H         3.918836         2.039557        -2.479367
 H         4.150340        -1.543068        -0.913341
 H         0.824194        -0.162069        -0.822481
 H         4.211298         0.401905         1.226871
 H         2.148276         2.604743         0.601143
 H         3.734785         2.960285        -0.411564
