19
Iteration:  1858charge 0 multiplicity 1
 C         0.884178         2.918115        -1.641002
 C         1.936877         1.915039        -1.298726
 C         2.971524         1.440222        -2.310256
 C         3.097049         0.168893        -1.434301
 O         4.034227        -0.952083        -1.653189
 C         1.711245         0.454703        -0.768962
 C         2.946910         0.697264        -0.066667
 O         3.417787        -0.079461         1.054927
 C         2.837221         2.195340         0.004448
 H         0.469439         3.508064        -0.816476
 H         1.496906         3.732961        -2.159471
 H         0.136595         2.375510        -2.295877
 H         2.466124         1.172987        -3.288920
 H         3.842858         1.992125        -2.640278
 H         4.457495        -1.015836        -0.746179
 H         0.817475        -0.157313        -0.301445
 H         2.724758        -0.051394         1.771142
 H         2.265234         2.533496         0.858143
 H         3.715138         2.860495        -0.016897
