19
Iteration:   133charge 0 multiplicity 1
 C         0.854347         2.860887        -1.683724
 C         1.923910         1.921683        -1.302364
 C         3.083266         1.462239        -2.270572
 C         3.252863         0.244260        -1.323642
 O         3.769147        -1.015735        -1.616376
 C         1.765393         0.449700        -0.820417
 C         2.881553         0.737735         0.133659
 O         3.645942        -0.135839         0.959855
 C         2.632154         2.306548        -0.081922
 H         0.216268         3.206355        -0.855353
 H         1.469632         3.757600        -2.084007
 H         0.261422         2.535136        -2.565774
 H         2.706549         1.156675        -3.298345
 H         3.955399         2.178794        -2.277285
 H         4.610115        -1.238442        -1.091686
 H         0.883219        -0.414936        -0.783544
 H         3.314848        -0.107324         1.839503
 H         1.994729         2.672719         0.710138
 H         3.464873         2.804319        -0.288990
