19
Iteration:  1838
 C         0.928164         2.950902        -1.757177
 C         2.001578         1.935926        -1.224986
 C         2.862278         1.323927        -2.351055
 C         3.175421         0.225850        -1.386571
 O         3.973157        -0.842673        -1.663192
 C         1.734436         0.417151        -0.806707
 C         2.930602         0.730516         0.047609
 O         3.464717        -0.133113         1.076884
 C         2.869713         2.201137         0.051765
 H         0.175919         3.288686        -1.031280
 H         1.122097         3.947078        -2.114345
 H         0.236674         2.341413        -2.415717
 H         2.186596         1.111637        -3.199581
 H         3.709968         1.828212        -2.927495
 H         4.179840        -1.220488        -0.800827
 H         0.818190        -0.172085        -0.895594
 H         2.709561        -0.271299         1.720797
 H         2.278705         2.582347         0.854280
 H         3.802499         2.680190        -0.068969
