19
Iteration:  2416
 C         0.906400         2.925186        -1.816829
 C         1.937713         1.900622        -1.318988
 C         3.081440         1.451279        -2.299683
 C         3.144389         0.260622        -1.369365
 O         3.718933        -0.994365        -1.680724
 C         1.721118         0.434631        -0.747581
 C         2.893582         0.667410         0.161623
 O         3.657459        -0.098186         1.052948
 C         2.746276         2.231068         0.036973
 H         0.290986         3.277246        -0.973604
 H         1.346341         3.917540        -2.345975
 H         0.297472         2.433406        -2.599589
 H         2.702387         1.130076        -3.335430
 H         3.808406         2.195898        -2.502696
 H         4.629634        -0.971722        -1.259558
 H         0.894696        -0.327988        -0.845817
 H         3.208268        -0.436039         1.881639
 H         2.147038         2.783057         0.842539
 H         3.720006         2.949917         0.044880
