19
Iteration:   339
 C         0.914477         2.839515        -1.737711
 C         2.025765         1.984084        -1.252324
 C         2.989098         1.329905        -2.390850
 C         3.118386         0.238964        -1.386449
 O         3.897892        -0.868410        -1.751646
 C         1.739865         0.482078        -0.824604
 C         2.883761         0.691273         0.094523
 O         3.578493        -0.038248         1.133691
 C         2.767006         2.214788         0.104889
 H         0.105201         2.906170        -1.055312
 H         1.127529         3.832944        -2.083937
 H         0.422353         2.402008        -2.608137
 H         2.225849         0.958056        -3.048261
 H         3.823002         1.807970        -2.925643
 H         4.124048        -1.300883        -0.858218
 H         0.719573        -0.151783        -0.863509
 H         2.966488        -0.552984         1.718939
 H         2.020526         2.506743         0.928837
 H         3.834826         2.667389         0.006598
