19
Iteration:  3528charge 0 multiplicity 1
 C         0.783745         2.799688        -1.805850
 C         2.034486         1.946582        -1.181536
 C         3.134081         1.450759        -2.310555
 C         3.193346         0.220454        -1.480133
 O         3.756546        -1.013984        -1.671254
 C         1.762400         0.488908        -0.798818
 C         3.009938         0.730960         0.011000
 O         3.445594        -0.054103         1.091343
 C         2.797170         2.198621         0.108524
 H        -0.069871         3.025000        -1.195478
 H         1.109971         3.767966        -2.257922
 H         0.359070         2.419081        -2.727811
 H         2.516327         1.323803        -3.169306
 H         3.960662         2.062820        -2.379262
 H         4.118066        -1.436161        -0.897489
 H         0.668382         0.213203        -0.661039
 H         3.935211         0.420355         1.741845
 H         2.101704         2.367437         0.830414
 H         3.724576         2.814803         0.096184
