19
Iteration:  3903
 C         0.911775         2.860548        -1.781974
 C         1.958780         1.964830        -1.291825
 C         2.944371         1.411868        -2.390021
 C         3.222425         0.234253        -1.435439
 O         3.866968        -0.971744        -1.583427
 C         1.768367         0.371863        -0.705372
 C         2.945290         0.717723         0.044752
 O         3.434262        -0.060987         1.084986
 C         2.740864         2.241340         0.010842
 H         0.323733         3.216165        -0.869288
 H         1.487427         3.901289        -1.712131
 H         0.514366         2.839378        -2.826434
 H         2.517392         1.212607        -3.440831
 H         3.814780         2.007908        -2.743113
 H         3.982473        -1.218446        -0.661241
 H         0.964938        -0.379125        -0.793048
 H         4.351908        -0.186985         1.203270
 H         1.986208         2.545242         0.710146
 H         3.568792         2.878792         0.311948
