19
Iteration:  3582charge 0 multiplicity 1
 C         0.920154         2.941459        -1.756406
 C         1.925285         1.884749        -1.356767
 C         3.039545         1.378381        -2.365314
 C         3.116674         0.175645        -1.352853
 O         3.911829        -0.970390        -1.668328
 C         1.683135         0.467883        -0.828636
 C         2.857583         0.769116         0.084662
 O         3.523230        -0.071861         1.146617
 C         2.749717         2.194055         0.063630
 H         0.193480         3.099469        -0.968106
 H         1.311900         4.004137        -1.773888
 H         0.454462         2.845544        -2.748534
 H         2.640677         1.096157        -3.384122
 H         3.843981         2.126133        -2.432568
 H         4.213191        -1.338937        -0.847647
 H         0.846016        -0.248076        -0.662514
 H         4.480643        -0.062412         1.051537
 H         2.132117         2.434562         0.949679
 H         3.651799         2.905765        -0.080284
