19
Iteration:  1937
 C         0.864420         2.805767        -1.897140
 C         1.945297         1.995244        -1.220443
 C         3.116785         1.489991        -2.245704
 C         3.106323         0.182909        -1.379033
 O         3.715805        -1.029336        -1.698953
 C         1.744612         0.491528        -0.729251
 C         3.046267         0.700677         0.025463
 O         3.624666        -0.092793         1.001752
 C         2.732951         2.258279         0.123600
 H        -0.110130         2.721811        -1.343071
 H         0.936780         3.923545        -1.876767
 H         0.400764         2.581251        -2.946731
 H         2.850501         1.619062        -3.315126
 H         4.133694         2.009137        -2.054267
 H         4.360471        -1.088925        -0.976537
 H         1.014773        -0.077169        -0.404490
 H         2.944317        -0.227514         1.735721
 H         2.002434         2.407887         0.901627
 H         3.583554         2.913392        -0.085428
