19
Iteration:  2083charge 0 multiplicity 1
 C         0.909272         2.807617        -1.866885
 C         1.923489         1.928670        -1.215398
 C         3.073245         1.494074        -2.215575
 C         3.082255         0.204015        -1.420531
 O         3.726456        -0.988832        -1.654981
 C         1.765333         0.447523        -0.774344
 C         3.058421         0.754702        -0.026193
 O         3.579699        -0.095400         0.973950
 C         2.790417         2.263563         0.174725
 H         0.086857         2.845203        -1.089653
 H         1.196713         3.830672        -2.269159
 H         0.428424         2.268193        -2.752627
 H         2.614534         1.439073        -3.229367
 H         4.022288         2.107421        -2.312230
 H         4.332710        -1.149682        -0.851117
 H         0.886487        -0.191479        -0.428662
 H         2.934264        -0.141802         1.664960
 H         1.928612         2.519514         0.829081
 H         3.685525         2.942545         0.075511
