19
Iteration:  2114charge 0 multiplicity 1
 C         0.867165         2.924538        -1.744685
 C         1.915641         1.904825        -1.380954
 C         3.148451         1.452762        -2.263407
 C         3.200831         0.222898        -1.318041
 O         3.721507        -1.019346        -1.689980
 C         1.710958         0.462867        -0.823756
 C         2.922074         0.717347         0.103600
 O         3.705464        -0.082567         1.042132
 C         2.690492         2.228927         0.036739
 H         0.120707         2.852924        -0.932080
 H         1.052526         4.003969        -1.748839
 H         0.310547         2.726462        -2.695411
 H         2.788129         1.102351        -3.188770
 H         3.940347         2.181586        -2.412216
 H         4.116401        -1.420871        -0.926152
 H         0.832061        -0.294879        -0.987631
 H         3.196514        -0.290378         1.887310
 H         2.067427         2.817751         0.565371
 H         3.523493         2.904583         0.100197
