19
Iteration:  3033
 C         0.897940         2.860434        -1.784378
 C         1.937830         1.914642        -1.239247
 C         3.069866         1.514404        -2.243554
 C         3.150104         0.230374        -1.440473
 O         3.709768        -1.048783        -1.745297
 C         1.720015         0.467878        -0.811706
 C         3.084090         0.658391        -0.007426
 O         3.475633         0.118304         1.222949
 C         2.830666         2.102688         0.034639
 H         0.098424         3.088229        -0.960455
 H         1.366434         3.779110        -2.072698
 H         0.227150         2.407329        -2.536922
 H         2.681218         1.204333        -3.275336
 H         4.049573         1.939041        -2.376101
 H         4.648799        -0.897677        -1.732625
 H         0.897919        -0.179298        -0.693272
 H         3.003192        -0.704775         1.456767
 H         2.259433         2.436311         0.975582
 H         3.751445         2.760009         0.095901
