19
Iteration:     3charge 0 multiplicity 1
 C         0.857165         2.860838        -1.736944
 C         1.977483         1.934335        -1.286410
 C         3.058047         1.462329        -2.319646
 C         3.146139         0.214820        -1.389542
 O         3.772025        -1.003045        -1.592155
 C         1.790030         0.419860        -0.819713
 C         2.973679         0.719579         0.065799
 O         3.490668         0.011506         1.111335
 C         2.742127         2.218783         0.040642
 H         0.158958         3.016223        -0.956001
 H         1.278474         3.824624        -1.981009
 H         0.355843         2.426377        -2.574305
 H         2.561447         1.181865        -3.267222
 H         3.932836         2.042657        -2.483280
 H         4.715805        -0.923804        -1.654547
 H         0.873444        -0.243510        -0.767461
 H         3.781886        -0.860172         0.695800
 H         2.133921         2.507662         0.813385
 H         3.701957         2.855990        -0.155801
