19
Iteration:  1131charge 0 multiplicity 1
 C         0.801939         2.819111        -1.816561
 C         1.937805         1.937961        -1.261694
 C         3.072285         1.544149        -2.254456
 C         3.233330         0.167650        -1.401229
 O         3.735899        -1.063835        -1.671747
 C         1.749112         0.422838        -0.750146
 C         3.013124         0.714479         0.025548
 O         3.564394         0.109767         1.082149
 C         2.737898         2.197665         0.063609
 H        -0.113709         2.869962        -1.261750
 H         1.303064         3.749902        -1.987024
 H         0.607701         2.412814        -2.853516
 H         2.713160         1.333462        -3.251507
 H         4.028567         2.221333        -2.400140
 H         4.403280        -1.327965        -1.046729
 H         1.109619        -0.366415        -0.667376
 H         3.035268        -0.655288         1.277630
 H         2.256084         2.460845         0.941695
 H         3.544894         2.852519         0.038588
