19
Iteration:  3889charge 0 multiplicity 1
 C         0.922648         2.972581        -1.789715
 C         1.970188         1.933600        -1.284165
 C         3.000422         1.379720        -2.338379
 C         3.122059         0.193845        -1.378733
 O         3.898895        -0.982915        -1.631474
 C         1.741918         0.422000        -0.836002
 C         2.985427         0.732332         0.066205
 O         3.475481        -0.063422         1.098680
 C         2.710774         2.220246         0.095571
 H         0.000751         2.934777        -1.268619
 H         1.318951         3.984528        -1.998847
 H         0.553013         2.505299        -2.699480
 H         2.280774         1.001980        -3.145125
 H         3.851135         2.018373        -2.619078
 H         3.972528        -1.512718        -0.793551
 H         0.880643        -0.147205        -0.612586
 H         4.451737         0.189196         1.005370
 H         2.004115         2.444416         0.961359
 H         3.495318         2.995750        -0.103682
