19
Iteration:  1942
 C         0.823837         2.818843        -1.885074
 C         1.952969         2.000671        -1.241496
 C         3.121094         1.498840        -2.224598
 C         3.115643         0.159736        -1.369710
 O         3.723987        -1.019506        -1.706733
 C         1.787491         0.482781        -0.704438
 C         3.003847         0.713173         0.047957
 O         3.619796        -0.108354         0.978924
 C         2.718220         2.278989         0.085927
 H        -0.114953         2.711597        -1.347972
 H         1.051770         3.885941        -1.931460
 H         0.571442         2.695428        -2.906377
 H         2.935737         1.359556        -3.305543
 H         4.054791         1.983123        -1.972307
 H         4.446376        -1.187751        -1.060750
 H         0.834824        -0.147725        -0.332454
 H         2.964520        -0.221693         1.668565
 H         2.158523         2.479183         1.039483
 H         3.561382         2.974565        -0.100711
