19
Iteration:  3062
 C         0.870220         2.859868        -1.792410
 C         1.978973         1.908668        -1.306107
 C         3.105288         1.481904        -2.258202
 C         3.133234         0.219256        -1.406914
 O         3.677073        -1.013247        -1.746741
 C         1.751191         0.368132        -0.822117
 C         2.955873         0.784455         0.183390
 O         3.603717        -0.032155         1.103273
 C         2.771542         2.294227         0.054236
 H         0.289336         2.961924        -0.909256
 H         1.256526         3.842759        -2.163330
 H         0.320026         2.478989        -2.686283
 H         2.703892         1.073238        -3.162515
 H         4.185402         1.761955        -2.056653
 H         4.578471        -1.009634        -1.379016
 H         0.775994        -0.227997        -0.769677
 H         3.046325        -0.817553         1.370377
 H         2.064700         2.794786         0.626761
 H         3.728648         2.800065         0.216828
