19
Iteration:   766
 C         0.937713         2.851684        -1.871011
 C         1.910323         1.886943        -1.264911
 C         2.995803         1.503009        -2.243145
 C         3.155102         0.220934        -1.353653
 O         3.800772        -0.976266        -1.672570
 C         1.712780         0.412870        -0.746866
 C         3.025304         0.659209         0.017266
 O         3.572880         0.019324         1.043308
 C         2.731463         2.150707         0.043896
 H         0.166101         3.047098        -1.052408
 H         1.506631         3.873956        -1.911305
 H         0.417106         2.486143        -2.779239
 H         2.702980         1.387343        -3.303199
 H         3.926358         2.107562        -2.374071
 H         4.523518        -1.090548        -1.045820
 H         0.812892        -0.241570        -0.555335
 H         3.097566         0.283629         1.868928
 H         1.960087         2.175821         0.829603
 H         3.527848         2.979396         0.022282
