19
Iteration:  1251charge 0 multiplicity 1
 C         0.908606         2.856686        -1.777985
 C         2.014817         1.983645        -1.290951
 C         3.047759         1.297321        -2.270495
 C         3.062919         0.169709        -1.420700
 O         3.783254        -0.932536        -1.552079
 C         1.687010         0.411645        -0.781233
 C         2.895483         0.702039         0.101620
 O         3.669634         0.010917         1.044311
 C         2.665991         2.269030         0.061536
 H         0.048460         3.092207        -1.148448
 H         1.282609         3.812133        -2.186952
 H         0.549245         2.264931        -2.709735
 H         2.766548         1.167806        -3.292478
 H         4.007812         1.883511        -2.353998
 H         4.738760        -0.673859        -1.739117
 H         0.604449         0.042014        -1.063409
 H         4.131515        -0.799119         0.650243
 H         1.916194         2.644052         0.817042
 H         3.552978         2.958220         0.318559
