19
Iteration:   946
 C         0.900512         2.846906        -1.746179
 C         2.014839         1.985418        -1.342362
 C         3.081635         1.420432        -2.342495
 C         3.159765         0.250093        -1.312116
 O         3.736561        -0.991389        -1.551187
 C         1.746347         0.416007        -0.868711
 C         2.938238         0.756763         0.145461
 O         3.687685        -0.074263         1.022189
 C         2.574225         2.219208        -0.013298
 H         0.314051         2.954371        -0.800749
 H         1.399574         3.773445        -2.028623
 H         0.163530         2.549089        -2.598502
 H         2.783609         1.160574        -3.316232
 H         3.978368         1.990989        -2.528246
 H         4.717837        -1.024903        -1.367395
 H         0.728062        -0.282837        -0.790113
 H         3.136049        -0.558451         1.624226
 H         1.809191         2.673944         0.625862
 H         3.438393         3.002130         0.017869
