19
Iteration:  2507
 C         0.880233         2.864992        -1.630177
 C         1.979005         1.937951        -1.241134
 C         3.008040         1.458628        -2.326623
 C         3.196399         0.217792        -1.447700
 O         3.780847        -1.030314        -1.593907
 C         1.752290         0.474314        -0.844777
 C         2.969747         0.699119        -0.014130
 O         3.458004         0.013189         1.085803
 C         2.896213         2.185579        -0.025804
 H         0.150202         2.877475        -0.770466
 H         1.003064         3.929973        -1.965082
 H         0.406815         2.308409        -2.548141
 H         2.520191         1.223777        -3.246119
 H         3.799812         2.135874        -2.712047
 H         4.521240        -1.044237        -0.971341
 H         0.819394         0.039937        -0.723438
 H         2.775316        -0.474470         1.521317
 H         2.287171         2.501976         0.834010
 H         3.954249         2.642032        -0.308791
