19
Iteration:  1022charge 0 multiplicity 1
 C         0.860439         2.819980        -1.707892
 C         1.940368         1.909906        -1.277532
 C         3.073563         1.268419        -2.309213
 C         3.241761         0.244016        -1.349337
 O         3.810281        -0.901565        -1.813377
 C         1.822664         0.438847        -0.839421
 C         2.965181         0.762886         0.057575
 O         3.466948        -0.006038         1.207757
 C         2.786544         2.346465         0.016226
 H         0.084332         2.851842        -0.919748
 H         0.995440         3.848043        -2.024401
 H         0.250258         2.266745        -2.510796
 H         2.653159         0.878490        -3.242440
 H         4.013317         1.791827        -2.744588
 H         4.044275        -1.602392        -1.171108
 H         0.994941        -0.385693        -0.719611
 H         2.733835        -0.293723         1.815339
 H         2.002914         2.551582         0.787646
 H         3.753404         3.065806        -0.051363
