19
Iteration:  2767
 C         0.897589         2.871317        -1.738208
 C         1.980850         1.943852        -1.313022
 C         3.087757         1.376091        -2.251253
 C         3.069762         0.239347        -1.297872
 O         3.746876        -0.934339        -1.687242
 C         1.761108         0.427005        -0.788989
 C         2.898493         0.742200         0.090536
 O         3.609822        -0.067616         0.947533
 C         2.766290         2.248720         0.023417
 H         0.222784         3.096145        -0.951072
 H         1.375117         3.866966        -1.994315
 H         0.443455         2.449452        -2.643546
 H         3.030998         1.026742        -3.324114
 H         4.027015         1.872420        -2.411726
 H         3.800464        -1.625755        -1.037574
 H         0.914159        -0.296343        -0.546163
 H         3.390139         0.074329         1.918098
 H         2.157128         2.458357         0.950729
 H         3.628043         2.856596        -0.212107
