19
Iteration:  3375
 C         0.884847         2.733919        -1.750940
 C         2.029804         1.985370        -1.271409
 C         3.107322         1.417839        -2.303650
 C         3.139088         0.254587        -1.437222
 O         3.769488        -0.988552        -1.712054
 C         1.821076         0.532650        -0.844899
 C         3.046161         0.772540         0.050879
 O         3.414375        -0.089466         1.147573
 C         2.694900         2.235075         0.134075
 H        -0.044881         2.969555        -1.154353
 H         1.106437         3.724635        -2.247570
 H         0.541847         2.117210        -2.626247
 H         2.534991         1.370605        -3.339142
 H         4.084178         1.952668        -2.465260
 H         3.588160        -1.526215        -0.958033
 H         0.928839        -0.168321        -0.735257
 H         4.376224        -0.030725         1.208055
 H         1.876222         2.618100         0.808121
 H         3.626531         2.964391         0.237364
