19
Iteration:  3217
 C         0.813939         2.897589        -1.835684
 C         2.052196         2.022388        -1.286015
 C         3.161527         1.416590        -2.266345
 C         3.159537         0.268804        -1.383163
 O         3.735674        -1.003078        -1.704639
 C         1.698417         0.406260        -0.809029
 C         2.889129         0.694126         0.130603
 O         3.632945        -0.082778         1.062436
 C         2.746676         2.251334         0.053783
 H         0.097033         2.875453        -0.975685
 H         1.003275         3.913563        -2.132061
 H         0.144274         2.320526        -2.462982
 H         2.718546         1.150592        -3.251919
 H         4.161084         1.925997        -2.509040
 H         4.444767        -1.128468        -0.993704
 H         0.760270        -0.272776        -0.752894
 H         2.970908        -0.352739         1.715423
 H         2.037870         2.622720         0.785244
 H         3.752187         2.762236         0.213490
