19
Iteration:  2269
 C         0.912362         2.875867        -1.758974
 C         1.937072         1.920763        -1.284633
 C         3.136920         1.472361        -2.288374
 C         3.148366         0.266260        -1.389447
 O         3.647377        -0.989399        -1.636710
 C         1.753089         0.423194        -0.888411
 C         2.931107         0.716020         0.172129
 O         3.663472        -0.105660         1.066063
 C         2.711869         2.218158         0.045450
 H         0.169080         2.820775        -0.922974
 H         1.305322         3.908096        -1.890560
 H         0.547929         2.632255        -2.832954
 H         2.678580         1.138861        -3.236382
 H         3.869679         2.188508        -2.604185
 H         4.542647        -1.147543        -1.360346
 H         1.058703        -0.421113        -1.025006
 H         3.234877         0.060700         1.897172
 H         1.931389         2.639319         0.694258
 H         3.557448         2.911536        -0.261741
