19
Iteration:  1959charge 0 multiplicity 1
 C         0.870845         2.855754        -1.783103
 C         1.917149         1.887431        -1.277996
 C         3.117522         1.423337        -2.183228
 C         3.149481         0.239668        -1.295578
 O         3.740008        -0.970089        -1.734305
 C         1.723596         0.414220        -0.793004
 C         2.961756         0.786380         0.145111
 O         3.591875        -0.139535         0.984273
 C         2.798265         2.311671        -0.006506
 H        -0.156499         2.789581        -1.326476
 H         1.159172         3.940580        -1.692888
 H         0.601556         2.527999        -2.906663
 H         2.643194         1.221283        -3.147176
 H         3.982802         2.128765        -2.408372
 H         4.465157        -1.074329        -1.052704
 H         0.928196        -0.186566        -0.747496
 H         3.156919        -0.306087         1.801321
 H         1.943935         2.673499         0.570759
 H         3.744037         2.939982        -0.144449
