19
Iteration:  4042
 C         0.958858         2.851082        -1.776327
 C         2.009083         1.835803        -1.289036
 C         3.096885         1.432846        -2.287500
 C         3.068065         0.186435        -1.441898
 O         3.805627        -0.988965        -1.596861
 C         1.751583         0.417612        -0.848080
 C         2.839230         0.677108         0.092309
 O         3.488575         0.078311         1.139015
 C         2.739286         2.237230         0.074330
 H         0.225780         2.900244        -0.994616
 H         1.317749         3.886877        -1.842830
 H         0.515011         2.546028        -2.721357
 H         2.546770         1.163109        -3.242201
 H         3.911939         2.135389        -2.466812
 H         4.736518        -0.908888        -1.929907
 H         0.823911        -0.219528        -0.916752
 H         4.368208        -0.362706         0.942553
 H         1.965519         2.677713         0.808839
 H         3.556307         3.018751         0.030072
