19
Iteration:   875
 C         0.851431         2.809458        -1.743996
 C         2.017806         1.893002        -1.408568
 C         3.080081         1.314637        -2.300451
 C         3.098435         0.258862        -1.310933
 O         3.886594        -0.800639        -1.789293
 C         1.724645         0.449909        -0.694280
 C         2.962042         0.751730         0.118413
 O         3.472932        -0.086076         1.138611
 C         2.818421         2.250821        -0.025913
 H         0.122325         2.750377        -0.917771
 H         1.155264         3.847176        -2.121983
 H         0.287084         2.437093        -2.579444
 H         2.665857         0.705540        -3.204986
 H         4.045256         1.779785        -2.683269
 H         3.873731        -1.649707        -1.249966
 H         0.827139        -0.107442        -0.605489
 H         2.869926         0.056912         1.853847
 H         2.138751         2.728625         0.758283
 H         3.874558         2.832570         0.162301
