19
Iteration:  3710
 C         0.875432         2.941556        -1.843494
 C         1.909030         1.873380        -1.321554
 C         3.108273         1.429151        -2.289196
 C         3.188240         0.174762        -1.323682
 O         3.744113        -0.929062        -1.673471
 C         1.808681         0.409400        -0.782460
 C         2.957907         0.734972         0.120147
 O         3.513917        -0.091501         1.096401
 C         2.730297         2.241014        -0.008917
 H        -0.015863         2.920908        -1.168847
 H         1.370386         3.851502        -1.862178
 H         0.381770         2.734802        -2.796912
 H         2.670429         1.305069        -3.264378
 H         4.060736         2.015595        -2.317070
 H         3.831195        -1.638234        -0.972834
 H         1.048060        -0.293517        -0.542606
 H         4.352983         0.366293         1.404681
 H         1.907854         2.485189         0.746959
 H         3.565544         2.854514         0.010382
