19
Iteration:  1567
 C         0.927576         2.892577        -1.770557
 C         1.897595         1.920820        -1.255945
 C         3.006332         1.432301        -2.263433
 C         3.136128         0.117767        -1.368292
 O         3.811116        -1.028371        -1.712814
 C         1.773804         0.448646        -0.844718
 C         3.044377         0.784008         0.019463
 O         3.486746        -0.032376         1.025464
 C         2.737306         2.262073         0.135853
 H         0.025313         3.018605        -1.178565
 H         1.451085         3.748406        -2.155831
 H         0.418465         2.428935        -2.671843
 H         2.534841         1.419455        -3.267782
 H         3.968335         1.983830        -2.183703
 H         4.112142        -1.418768        -0.883388
 H         1.009718        -0.141281        -0.426774
 H         4.333236         0.185366         1.458917
 H         1.922170         2.283767         0.878596
 H         3.417823         3.088717         0.208275
