19
Iteration:  4061
 C         0.814390         2.937611        -1.750322
 C         1.959070         1.962499        -1.366548
 C         3.099266         1.422982        -2.320366
 C         3.162524         0.236639        -1.289970
 O         3.837145        -0.996483        -1.583409
 C         1.743039         0.369073        -0.846855
 C         2.922230         0.701314         0.076427
 O         3.491616         0.028111         1.190049
 C         2.731667         2.189909         0.001356
 H        -0.041694         2.985222        -1.027366
 H         1.284073         3.908097        -2.017236
 H         0.585049         2.501087        -2.777278
 H         2.810384         1.218582        -3.307104
 H         4.089630         1.904886        -2.476711
 H         4.544986        -1.040895        -2.298069
 H         0.809889        -0.276963        -0.775184
 H         3.814006        -0.845524         0.766117
 H         2.224597         2.586634         0.854043
 H         3.665287         2.644353        -0.058603
