19
Iteration:  2250
 C         0.795051         2.872842        -1.748867
 C         1.987867         1.947138        -1.348748
 C         3.152478         1.444302        -2.195481
 C         3.168969         0.220015        -1.304931
 O         3.673947        -1.016486        -1.673762
 C         1.760389         0.438882        -0.831352
 C         2.963434         0.728169         0.064418
 O         3.650740        -0.084494         0.999343
 C         2.687407         2.256811        -0.004200
 H         0.290552         3.039611        -0.793162
 H         1.216982         3.845441        -2.170991
 H         0.360907         2.568733        -2.646946
 H         3.058424         1.288174        -3.310834
 H         4.079391         2.020715        -2.092190
 H         4.438777        -1.309708        -1.200928
 H         0.742937        -0.001674        -0.571432
 H         3.140018        -0.182538         1.795075
 H         1.977124         2.487405         0.767479
 H         3.551870         2.884089         0.053149
