19
Iteration:   533
 C         0.813103         2.856747        -1.626319
 C         1.944209         1.916710        -1.260222
 C         3.025392         1.485475        -2.295914
 C         3.143330         0.183840        -1.403240
 O         3.955274        -0.949952        -1.552190
 C         1.701854         0.489127        -0.818442
 C         3.011953         0.636974        -0.036920
 O         3.452002        -0.059572         0.992540
 C         2.860282         2.225727        -0.067808
 H         0.037877         3.150990        -0.850877
 H         1.221995         3.801735        -2.105606
 H         0.212729         2.347974        -2.471944
 H         2.671995         1.039335        -3.218816
 H         3.814083         2.094682        -2.455586
 H         4.507724        -1.152616        -0.787769
 H         0.677591        -0.030800        -0.484055
 H         2.650256        -0.200182         1.543294
 H         2.272218         2.561085         0.741822
 H         3.663908         2.929494        -0.238294
