19
Iteration:  1436charge 0 multiplicity 1
 C         0.871885         2.872671        -1.826766
 C         1.812590         1.885517        -1.224828
 C         3.156834         1.499760        -2.193119
 C         3.048355         0.215237        -1.377378
 O         3.710535        -1.021003        -1.582682
 C         1.746383         0.391826        -0.802316
 C         2.988813         0.713371         0.058995
 O         3.667199         0.035128         1.101666
 C         2.722294         2.186507        -0.027684
 H         0.002003         3.109843        -1.183375
 H         1.475088         3.782129        -1.950974
 H         0.676755         2.442690        -2.849107
 H         2.853490         1.342023        -3.356203
 H         4.020335         2.214156        -1.917497
 H         4.294950        -0.931397        -2.311553
 H         0.888117        -0.240517        -0.733336
 H         4.026361        -0.809759         0.851382
 H         2.187493         2.745113         0.771869
 H         3.597504         2.866075        -0.276744
