19
Iteration:  1223
 C         0.832782         2.895762        -1.749004
 C         1.896461         1.895426        -1.347948
 C         3.005655         1.428390        -2.299839
 C         3.179744         0.217930        -1.383988
 O         3.819706        -0.964592        -1.517548
 C         1.774625         0.396746        -0.808359
 C         2.950788         0.727914         0.031649
 O         3.483553        -0.043089         1.117181
 C         2.815375         2.226477        -0.033074
 H         0.153472         3.250207        -0.938308
 H         1.349727         3.750307        -2.217232
 H         0.166576         2.587105        -2.519657
 H         2.549896         1.086425        -3.290504
 H         3.763114         2.256153        -2.341974
 H         4.775039        -0.773775        -1.654596
 H         0.935809        -0.292041        -0.687734
 H         4.148008        -0.748950         0.916940
 H         2.319644         2.716186         0.799978
 H         3.752758         2.751801         0.050433
