19
Iteration:  1476charge 0 multiplicity 1
 C         0.853443         2.802180        -1.714423
 C         2.056429         1.970114        -1.259187
 C         2.998612         1.358894        -2.408139
 C         3.167108         0.217200        -1.481191
 O         3.826006        -0.968520        -1.579117
 C         1.780818         0.543931        -0.838801
 C         3.098143         0.732566         0.086466
 O         3.409670        -0.042275         1.194285
 C         2.757766         2.228810         0.082188
 H         0.097625         2.808288        -0.941666
 H         1.088522         3.823035        -2.062849
 H         0.233547         2.435823        -2.529325
 H         2.359609         1.122191        -3.165402
 H         3.951577         1.749120        -2.699564
 H         3.773453        -1.255393        -2.547936
 H         0.722746         0.051520        -0.651289
 H         4.333457        -0.354310         0.924455
 H         2.003439         2.362902         0.879019
 H         3.361741         3.114528        -0.019566
