19
Iteration:  4639charge 0 multiplicity 1
 C         0.947057         2.926298        -1.818625
 C         1.944360         1.909732        -1.407788
 C         3.089814         1.489570        -2.368451
 C         3.092926         0.227381        -1.331167
 O         3.799195        -0.935091        -1.584370
 C         1.704769         0.337975        -0.823847
 C         3.014173         0.736408         0.101326
 O         3.639467        -0.079576         1.100506
 C         2.609909         2.213549         0.069819
 H         0.208258         2.984325        -0.974134
 H         1.589557         3.770285        -1.931372
 H         0.318534         2.735771        -2.698317
 H         2.741588         1.189091        -3.343445
 H         4.094990         2.065433        -2.342547
 H         4.529374        -0.999110        -0.886624
 H         0.820377        -0.241356        -0.887043
 H         2.998376        -0.793127         1.393835
 H         1.682218         2.340939         0.660862
 H         3.406135         3.019243         0.310537
