19
Iteration:  2515charge 0 multiplicity 1
 C         0.854773         2.870663        -1.668238
 C         2.072046         1.959779        -1.275301
 C         2.973199         1.498122        -2.370155
 C         3.134799         0.158829        -1.425092
 O         3.798174        -1.030536        -1.583753
 C         1.757577         0.410358        -0.834063
 C         2.954361         0.699378        -0.043191
 O         3.466757        -0.010829         1.063096
 C         2.916564         2.216798         0.033422
 H         0.149732         3.025245        -0.882985
 H         1.081607         3.926743        -2.028399
 H         0.289714         2.327765        -2.386457
 H         2.513353         1.228771        -3.362781
 H         3.726038         2.261696        -2.446120
 H         4.531886        -1.127022        -0.935903
 H         0.866950        -0.171177        -0.511370
 H         2.715259        -0.323592         1.539685
 H         2.480749         2.684873         0.925146
 H         3.689921         2.983543         0.021257
