19
Iteration:  1662
 C         0.801255         2.920257        -1.620248
 C         1.914220         1.846327        -1.308656
 C         3.074826         1.404641        -2.328181
 C         3.232467         0.256661        -1.321742
 O         3.805689        -0.960967        -1.689316
 C         1.810118         0.416853        -0.841095
 C         3.023668         0.773925         0.042313
 O         3.441393        -0.052683         1.153904
 C         2.821934         2.227807        -0.125002
 H         0.305625         3.168789        -0.671024
 H         1.376133         3.801663        -1.989545
 H         0.009513         2.753984        -2.410366
 H         2.480501         1.068822        -3.166510
 H         3.920306         2.150485        -2.521062
 H         4.187806        -1.357142        -0.838150
 H         0.996105        -0.269567        -0.762342
 H         2.923431        -0.917638         1.155915
 H         2.238998         2.667711         0.749492
 H         3.709362         2.921989        -0.333495
