19
Iteration:   704charge 0 multiplicity 1
 C         0.804664         2.800564        -1.618958
 C         1.979996         1.939429        -1.297887
 C         3.140402         1.356292        -2.363693
 C         3.130222         0.191675        -1.374031
 O         3.875364        -0.885886        -1.648852
 C         1.716744         0.421621        -0.857123
 C         3.021742         0.768064         0.025950
 O         3.461882        -0.052752         1.063583
 C         2.797248         2.313390        -0.028128
 H         0.217543         3.036948        -0.722069
 H         1.263890         3.781363        -1.909935
 H         0.210858         2.269468        -2.400825
 H         2.616368         1.013285        -3.235520
 H         4.218181         1.618435        -2.371120
 H         4.187416        -1.529306        -0.984611
 H         0.724433         0.029733        -0.606111
 H         2.696592        -0.303976         1.646877
 H         2.062552         2.464129         0.838043
 H         3.561032         3.078931        -0.116252
