19
Iteration:  4258charge 0 multiplicity 1
 C         0.786250         2.923897        -1.753148
 C         1.966965         1.937012        -1.303803
 C         3.176529         1.337438        -2.396582
 C         3.189416         0.186002        -1.464815
 O         3.968601        -0.944463        -1.595458
 C         1.786326         0.490900        -0.828170
 C         2.982111         0.716131         0.098855
 O         3.342661         0.019192         1.185820
 C         2.712893         2.226880         0.068351
 H         0.228088         3.126818        -0.818777
 H         1.157490         3.912654        -1.927092
 H         0.094876         2.399380        -2.448211
 H         2.695924         0.884587        -3.243137
 H         3.980956         2.058279        -2.456842
 H         3.699856        -1.588410        -2.244147
 H         1.015508        -0.190772        -0.737166
 H         3.375457        -0.946517         0.989945
 H         2.058417         2.493588         0.942789
 H         3.751894         2.772775         0.073066
