19
Iteration:  4743
 C         0.778343         2.841542        -1.725093
 C         1.961688         1.959929        -1.329832
 C         3.136184         1.465277        -2.337138
 C         3.202288         0.222102        -1.425837
 O         3.897335        -0.895605        -1.647531
 C         1.785074         0.427270        -0.835952
 C         2.961983         0.627517         0.051251
 O         3.448728        -0.038413         1.190653
 C         2.821100         2.204432         0.031201
 H         0.114207         3.210249        -0.930042
 H         1.037639         3.841942        -2.257620
 H         0.299606         2.262568        -2.540748
 H         2.774925         1.064526        -3.378070
 H         3.933952         2.208257        -2.673885
 H         3.461566        -1.650324        -1.187711
 H         0.915865        -0.122492        -0.853270
 H         2.738429        -0.364166         1.813723
 H         2.080996         2.526672         0.785623
 H         3.598685         2.920418         0.008002
