19
Iteration:  2362charge 0 multiplicity 1
 C         0.796551         2.830910        -1.691416
 C         2.028177         1.989061        -1.282446
 C         3.005158         1.472359        -2.343346
 C         3.104618         0.180980        -1.446734
 O         3.884498        -0.991120        -1.624483
 C         1.764063         0.510326        -0.868142
 C         3.006745         0.676898         0.091993
 O         3.503404        -0.067401         1.085307
 C         2.862651         2.219620         0.048153
 H         0.197176         3.271888        -0.887851
 H         1.134560         3.698162        -2.368268
 H         0.187326         2.424110        -2.511452
 H         2.473638         1.371212        -3.361556
 H         3.879557         2.073488        -2.600628
 H         3.592720        -1.546230        -0.827347
 H         0.875728        -0.078041        -0.950040
 H         2.867631         0.014145         1.865542
 H         2.227637         2.412169         0.834587
 H         3.793545         2.659078        -0.047484
