19
Iteration:   770
 C         0.918769         2.884468        -1.854969
 C         1.954063         1.906089        -1.264584
 C         3.039158         1.490096        -2.280233
 C         3.133711         0.209965        -1.361119
 O         3.800168        -0.982954        -1.677838
 C         1.703011         0.384710        -0.735058
 C         2.990347         0.667704         0.057398
 O         3.593935         0.014874         1.028458
 C         2.701499         2.158687         0.046945
 H         0.189892         3.028295        -1.063644
 H         1.449594         3.816464        -1.959410
 H         0.480170         2.452981        -2.744944
 H         2.690341         1.259733        -3.273765
 H         3.908500         2.183405        -2.298110
 H         4.592323        -1.042640        -1.058176
 H         0.903305        -0.206374        -0.514364
 H         3.137711         0.239281         1.835816
 H         1.896309         2.335689         0.746004
 H         3.401129         2.923809         0.029995
