19
Iteration:  1492charge 0 multiplicity 1
 C         0.844265         2.807653        -1.645346
 C         1.975349         1.969545        -1.327669
 C         3.020087         1.412820        -2.356646
 C         3.102516         0.165167        -1.436627
 O         3.952117        -0.961256        -1.599040
 C         1.803765         0.445885        -0.749545
 C         3.052742         0.756683        -0.018536
 O         3.300932        -0.040613         1.133260
 C         2.840030         2.291648         0.022704
 H         0.199308         2.995586        -0.743589
 H         1.233412         3.774459        -1.998247
 H         0.208586         2.331834        -2.440474
 H         2.562583         1.176996        -3.465728
 H         3.833556         2.165979        -2.678002
 H         3.411727        -1.608351        -2.146615
 H         1.001880        -0.081316        -0.354322
 H         4.247155        -0.347374         1.227943
 H         2.034927         2.487579         0.758884
 H         3.793412         2.871780         0.055657
