19
Iteration:  1086charge 0 multiplicity 1
 C         0.883723         2.931266        -1.804423
 C         1.913186         1.899305        -1.287320
 C         3.009663         1.383976        -2.324443
 C         3.184308         0.274642        -1.377816
 O         3.870285        -0.944040        -1.529847
 C         1.721061         0.428923        -0.788578
 C         2.876413         0.698245         0.116481
 O         3.610784        -0.120583         0.956632
 C         2.718142         2.205986        -0.005293
 H         0.310029         3.041465        -0.894975
 H         1.357797         3.847582        -2.145397
 H         0.193095         2.478172        -2.548217
 H         2.677323         1.049130        -3.304113
 H         3.896172         2.115102        -2.589826
 H         4.569798        -0.781224        -0.898201
 H         0.854657        -0.261244        -0.803560
 H         3.363977         0.201364         1.817895
 H         2.054908         2.560309         0.761561
 H         3.588566         2.835064         0.045818
