19
Iteration:  1762
 C         0.833370         2.796665        -1.796651
 C         2.064525         1.999370        -1.335529
 C         3.130399         1.536652        -2.293356
 C         3.138277         0.274955        -1.386646
 O         3.609782        -1.011176        -1.608827
 C         1.747865         0.490387        -0.860928
 C         2.967836         0.640887         0.035164
 O         3.702112        -0.046835         1.097173
 C         2.680224         2.111993         0.088213
 H         0.114994         2.860875        -0.951922
 H         1.076329         3.875864        -1.897295
 H         0.439133         2.522186        -2.818148
 H         2.662054         1.065063        -3.162878
 H         4.082823         2.169266        -2.517935
 H         4.382391        -1.117332        -0.990259
 H         0.938666        -0.182850        -1.311322
 H         3.324746         0.214797         1.947600
 H         1.919675         2.461377         0.809053
 H         3.560338         2.771141         0.290432
