19
Iteration:  1680charge 0 multiplicity 1
 C         0.885450         2.911565        -1.649878
 C         2.016388         1.915145        -1.339870
 C         2.935500         1.386770        -2.367385
 C         3.243460         0.292889        -1.392496
 O         3.876491        -0.928055        -1.725937
 C         1.727929         0.442330        -0.765563
 C         2.860932         0.662104         0.095552
 O         3.442163        -0.000930         1.172207
 C         2.872374         2.233258        -0.002768
 H         0.258071         3.021176        -0.760547
 H         1.325843         3.775067        -2.140856
 H         0.236088         2.297014        -2.201495
 H         2.445479         0.945717        -3.334696
 H         3.775653         1.948196        -2.772172
 H         4.445546        -1.375855        -1.021027
 H         1.062676        -0.313306        -1.027020
 H         2.991243        -0.891020         1.370664
 H         2.291647         2.701219         0.738141
 H         3.805458         2.565695        -0.303011
