19
Iteration:  4214charge 0 multiplicity 1
 C         0.849041         2.857252        -1.790868
 C         1.935778         1.931195        -1.351450
 C         3.062661         1.441938        -2.310544
 C         3.195223         0.245538        -1.373784
 O         3.897079        -0.949899        -1.555083
 C         1.766547         0.391078        -0.803155
 C         2.893015         0.729386         0.104321
 O         3.366646        -0.092115         1.124662
 C         2.841658         2.222070         0.068112
 H        -0.086105         3.037056        -1.198048
 H         1.465798         3.761623        -1.900909
 H         0.509455         2.480064        -2.808012
 H         2.530662         1.243512        -3.250389
 H         4.138852         1.883368        -2.471198
 H         3.580753        -1.093903        -2.437423
 H         1.021209        -0.332953        -0.949200
 H         4.209685         0.306853         1.378118
 H         2.301717         2.692944         0.914633
 H         3.815090         2.794601        -0.270349
