19
Iteration:  2365charge 0 multiplicity 1
 C         0.782681         2.828263        -1.687809
 C         2.024249         2.016264        -1.307574
 C         2.991689         1.478985        -2.361984
 C         3.117948         0.176462        -1.457208
 O         3.883060        -1.017616        -1.613146
 C         1.764861         0.511575        -0.831831
 C         3.018952         0.677849         0.081391
 O         3.497958        -0.067649         1.071896
 C         2.841767         2.210898         0.062478
 H         0.290754         3.336263        -0.881781
 H         1.150904         3.547026        -2.353870
 H         0.211348         2.448177        -2.580437
 H         2.595819         1.522999        -3.362801
 H         3.954654         2.111147        -2.603062
 H         3.699930        -1.559129        -0.854132
 H         0.806732        -0.115916        -0.887139
 H         2.937625         0.053295         1.822734
 H         2.162789         2.493789         0.940961
 H         3.835874         2.646852         0.064239
