19
Iteration:   345
 C         0.900638         2.853014        -1.751936
 C         2.013232         1.992856        -1.312725
 C         2.948289         1.348917        -2.376550
 C         3.141925         0.231188        -1.386013
 O         3.897586        -0.885459        -1.755567
 C         1.741208         0.476278        -0.807565
 C         2.874471         0.718545         0.137838
 O         3.553771        -0.027929         1.136193
 C         2.781125         2.188817         0.087017
 H         0.166856         2.844367        -0.856953
 H         1.164147         3.915520        -2.022265
 H         0.405190         2.316841        -2.598962
 H         2.350834         0.825723        -3.219085
 H         3.868652         1.894946        -2.848510
 H         4.196945        -1.315505        -0.929721
 H         0.889089        -0.121235        -0.942075
 H         3.101075        -0.660987         1.661928
 H         2.268532         2.523144         0.955579
 H         3.801846         2.613952         0.241389
