19
Iteration:  4444charge 0 multiplicity 1
 C         0.768391         2.855914        -1.833033
 C         1.973987         1.952560        -1.299370
 C         3.095729         1.541718        -2.249212
 C         3.192352         0.218791        -1.363246
 O         3.955479        -0.966241        -1.445326
 C         1.774568         0.389140        -0.909990
 C         2.927994         0.700609         0.044960
 O         3.440841        -0.057960         1.113225
 C         2.765609         2.249106         0.055059
 H        -0.064979         3.201414        -1.163264
 H         1.121220         3.816574        -2.240362
 H         0.438700         2.286420        -2.732419
 H         2.439412         1.163404        -3.128421
 H         3.763199         2.350483        -2.537729
 H         3.950469        -1.303715        -2.349713
 H         0.877360        -0.282859        -0.940314
 H         3.371285        -0.995643         0.788575
 H         2.244689         2.538556         0.954977
 H         3.780732         2.650694        -0.043373
