19
Iteration:  2582
 C         0.945827         2.895544        -1.817290
 C         1.993370         1.991900        -1.195302
 C         3.014980         1.443595        -2.329581
 C         3.030662         0.184656        -1.435887
 O         3.800522        -0.960931        -1.706270
 C         1.690736         0.324972        -0.721605
 C         2.946183         0.675787         0.072540
 O         3.648459         0.007194         1.044341
 C         2.758570         2.174410         0.081736
 H         0.295761         3.488998        -1.240341
 H         1.509784         3.755052        -2.225608
 H         0.431311         2.408632        -2.641247
 H         2.790495         1.450729        -3.396163
 H         3.981067         1.884323        -2.399997
 H         3.692053        -1.671224        -1.048906
 H         0.766239        -0.109757        -0.661477
 H         3.216176         0.052932         1.957671
 H         2.321388         2.590220         1.013976
 H         3.491598         3.042407        -0.010217
