19
Iteration:  3831charge 0 multiplicity 1
 C         0.848587         2.792228        -1.822336
 C         1.989763         1.915405        -1.248629
 C         3.091733         1.482127        -2.276435
 C         3.184248         0.189791        -1.354094
 O         3.731582        -0.992267        -1.737549
 C         1.784199         0.433885        -0.944884
 C         3.047034         0.746807         0.051136
 O         3.403675        -0.037171         1.222448
 C         2.825747         2.289220         0.109295
 H         0.135457         2.996627        -1.028057
 H         1.161541         3.659196        -2.315255
 H         0.318292         2.282034        -2.619233
 H         2.552826         1.226693        -3.151141
 H         3.950860         2.148653        -2.556303
 H         3.899704        -1.497339        -0.939671
 H         0.843633        -0.174358        -0.734574
 H         4.333501        -0.018299         1.058475
 H         2.128079         2.417233         1.004523
 H         3.492852         3.163644        -0.026847
