19
Iteration:  3019
 C         0.874171         2.892071        -1.714082
 C         2.033513         1.966460        -1.275954
 C         3.022195         1.419843        -2.380115
 C         3.170108         0.166369        -1.454415
 O         3.685353        -1.009310        -1.749803
 C         1.847986         0.348380        -0.848319
 C         2.995763         0.698078         0.093224
 O         3.447424         0.094655         1.256833
 C         2.854617         2.201823         0.095341
 H         0.224689         3.160541        -0.868126
 H         1.266296         3.826943        -2.201014
 H         0.486562         2.443026        -2.668365
 H         2.313993         1.247340        -3.285685
 H         3.828245         2.280654        -2.416141
 H         4.673261        -1.002897        -1.639843
 H         0.844560        -0.232198        -0.783612
 H         3.088383        -0.827967         1.233703
 H         2.124267         2.396435         0.856698
 H         3.683601         2.954317         0.093662
