19
Iteration:  1454
 C         0.845782         2.853934        -1.817229
 C         1.988363         1.906424        -1.341962
 C         3.048415         1.462126        -2.278104
 C         3.213356         0.247332        -1.332547
 O         3.702517        -1.010296        -1.619191
 C         1.739603         0.406710        -0.794267
 C         2.939819         0.697746         0.149439
 O         3.577130         0.017750         1.120234
 C         2.766599         2.264629         0.054869
 H         0.010828         2.826188        -1.135277
 H         1.251379         3.863542        -2.028055
 H         0.351535         2.588719        -2.776604
 H         2.591245         1.067982        -3.152954
 H         3.919273         2.083783        -2.397265
 H         4.005455        -0.993335        -2.512187
 H         0.950628        -0.492082        -0.798547
 H         4.219501        -0.531679         0.670273
 H         2.240664         2.559555         0.952326
 H         3.717521         2.771646         0.110808
