19
Iteration:  3060charge 0 multiplicity 1
 C         0.867434         2.870598        -1.787510
 C         1.985719         1.904455        -1.299479
 C         3.110695         1.483773        -2.246690
 C         3.141301         0.209252        -1.400777
 O         3.680869        -1.018551        -1.755676
 C         1.744278         0.357544        -0.817658
 C         2.946910         0.782542         0.177477
 O         3.597528        -0.023517         1.109225
 C         2.787474         2.285827         0.034739
 H         0.202364         2.980495        -0.957634
 H         1.256858         3.854640        -2.187129
 H         0.302089         2.458915        -2.653501
 H         2.715258         1.144773        -3.186104
 H         4.157539         1.783859        -2.028273
 H         4.577260        -0.996365        -1.435336
 H         0.737763        -0.218036        -0.762067
 H         3.074611        -0.818679         1.380499
 H         2.053619         2.820391         0.676631
 H         3.701527         2.863936         0.189494
