19
Iteration:  1118
 C         0.881803         2.839122        -1.856983
 C         1.930778         1.967722        -1.241081
 C         3.041539         1.391431        -2.257267
 C         3.144713         0.304495        -1.395769
 O         3.747500        -1.046498        -1.619129
 C         1.822317         0.413866        -0.815355
 C         3.015492         0.727925         0.032968
 O         3.640619        -0.021546         1.052391
 C         2.675091         2.263765         0.083666
 H         0.070772         2.929187        -1.123661
 H         1.115767         3.918100        -1.980802
 H         0.434490         2.459643        -2.790389
 H         2.576760         1.147747        -3.215383
 H         3.949117         2.093492        -2.401709
 H         4.556066        -0.982242        -1.010527
 H         0.925747        -0.185705        -0.700309
 H         2.987643        -0.609982         1.534417
 H         1.861386         2.359772         0.756136
 H         3.418364         2.985455         0.013330
