19
Iteration:  4043charge 0 multiplicity 1
 C         0.958707         2.849119        -1.778657
 C         2.004610         1.841130        -1.279761
 C         3.100958         1.428005        -2.294911
 C         3.072996         0.191683        -1.442550
 O         3.806308        -0.993614        -1.595212
 C         1.751935         0.421139        -0.852043
 C         2.831420         0.679616         0.098104
 O         3.489549         0.080588         1.139212
 C         2.739428         2.226261         0.071095
 H         0.221539         2.914938        -1.000902
 H         1.305567         3.886663        -1.825099
 H         0.504273         2.554986        -2.708681
 H         2.542210         1.142558        -3.267069
 H         3.913273         2.151404        -2.441597
 H         4.732034        -0.873524        -1.957919
 H         0.852873        -0.219349        -0.895892
 H         4.349328        -0.371177         0.929865
 H         1.969377         2.681957         0.805830
 H         3.585969         3.020067         0.029188
