19
Iteration:  3693
 C         0.814518         2.833436        -1.817284
 C         1.967412         2.014975        -1.288383
 C         3.133025         1.455592        -2.227169
 C         3.115330         0.214545        -1.448741
 O         3.811869        -1.036164        -1.745857
 C         1.695730         0.404935        -0.786124
 C         3.013882         0.719050         0.066891
 O         3.497488        -0.058559         1.207563
 C         2.743764         2.252714         0.051986
 H         0.075439         2.998602        -1.049607
 H         1.224669         3.880890        -2.168942
 H         0.533159         2.368575        -2.781898
 H         2.927781         1.177106        -3.294194
 H         4.046995         2.042155        -2.202283
 H         3.643290        -1.555098        -0.883373
 H         0.768815        -0.195485        -0.947983
 H         4.459560         0.234563         1.336120
 H         2.194973         2.708604         0.848038
 H         3.606172         3.034874        -0.238147
