19
Iteration:  1183
 C         0.795615         2.785478        -1.661828
 C         2.033123         1.917367        -1.357797
 C         2.983287         1.354891        -2.338748
 C         3.307029         0.223041        -1.402856
 O         3.802895        -1.025572        -1.729708
 C         1.813874         0.439128        -0.843836
 C         2.989681         0.747813         0.095176
 O         3.358393         0.115712         1.209100
 C         2.838063         2.247668         0.060912
 H         0.264118         2.882686        -0.715205
 H         1.176530         3.819194        -1.901668
 H         0.132074         2.362408        -2.438832
 H         2.741848         0.890037        -3.273004
 H         3.812656         1.965910        -2.637478
 H         4.771487        -0.946573        -1.906286
 H         0.895214         0.021507        -0.664817
 H         3.128685        -0.798304         1.075548
 H         1.957094         2.622989         0.715600
 H         3.650591         3.083777         0.084953
