19
Iteration:  2713
 C         0.946065         2.929395        -1.789596
 C         1.946298         1.910081        -1.298788
 C         2.991500         1.369392        -2.261492
 C         3.215069         0.248769        -1.317586
 O         3.729180        -0.917800        -1.772342
 C         1.756606         0.400011        -0.731874
 C         2.989846         0.747791         0.084802
 O         3.590176        -0.034921         1.089538
 C         2.767548         2.224283         0.020601
 H         0.317883         3.245425        -1.003543
 H         1.438588         3.728802        -2.347601
 H         0.305106         2.444811        -2.548772
 H         2.343270         0.946623        -3.128407
 H         3.997736         1.920210        -2.514138
 H         3.720559        -1.541381        -1.049348
 H         0.948931        -0.389047        -1.002721
 H         2.891007        -0.148501         1.793335
 H         2.128568         2.351385         0.936030
 H         3.690077         2.663214        -0.068929
