19
Iteration:  4145
 C         0.851832         2.862787        -1.822190
 C         1.968221         1.973655        -1.302122
 C         3.159574         1.463360        -2.282161
 C         3.197222         0.229389        -1.341224
 O         3.866687        -0.941436        -1.677654
 C         1.752327         0.366591        -0.867396
 C         2.905719         0.685321         0.131590
 O         3.435245         0.000129         1.223851
 C         2.708011         2.190328        -0.048070
 H         0.243706         3.112334        -0.943346
 H         1.317850         3.811024        -2.025225
 H         0.184197         2.557212        -2.585690
 H         2.754835         1.340377        -3.325554
 H         4.110688         2.035957        -2.224857
 H         3.241388        -1.656520        -1.646242
 H         0.920898        -0.396619        -0.745814
 H         4.289744        -0.346551         0.986825
 H         2.089158         2.530748         0.802303
 H         3.740291         2.746989        -0.029785
