19
Iteration:  3072
 C         0.909897         2.800311        -1.788329
 C         1.994125         1.959785        -1.344680
 C         3.107565         1.397335        -2.318300
 C         3.091299         0.265059        -1.388531
 O         3.669356        -0.971477        -1.671370
 C         1.813217         0.495284        -0.813237
 C         2.947916         0.734619         0.119809
 O         3.633187        -0.079448         1.079565
 C         2.699047         2.263548         0.136217
 H         0.301327         2.988837        -0.935826
 H         1.365704         3.817527        -1.940113
 H         0.297932         2.447832        -2.645298
 H         2.757904         1.079075        -3.289791
 H         3.934381         2.084960        -2.675445
 H         4.462314        -1.124651        -1.107563
 H         1.003385        -0.299893        -0.786361
 H         2.905570        -0.678288         1.351044
 H         1.964686         2.648310         0.836711
 H         3.649603         2.789245         0.042843
