19
Iteration:  1111
 C         0.883039         2.881709        -1.844981
 C         1.959503         1.923203        -1.283357
 C         3.026235         1.404399        -2.310360
 C         3.140762         0.219843        -1.381773
 O         3.749571        -0.975036        -1.583498
 C         1.783784         0.422795        -0.845411
 C         3.007681         0.770503         0.122203
 O         3.686913        -0.092971         1.048150
 C         2.635957         2.274931         0.049389
 H         0.108783         2.852727        -1.078068
 H         1.235988         3.873800        -2.044559
 H         0.423841         2.384824        -2.741683
 H         2.550510         1.220862        -3.266787
 H         3.941060         2.004292        -2.582820
 H         4.600327        -0.943901        -1.076867
 H         0.919550        -0.130879        -0.713857
 H         2.930793        -0.466111         1.547190
 H         1.874054         2.391435         0.848459
 H         3.434485         3.058227         0.221726
