19
Iteration:  2025charge 0 multiplicity 1
 C         0.844157         2.981168        -1.619213
 C         1.953077         1.826594        -1.320590
 C         3.106626         1.389351        -2.321270
 C         3.173831         0.219469        -1.376818
 O         3.900222        -0.927525        -1.682710
 C         1.756284         0.406541        -0.754019
 C         2.937544         0.722338         0.079428
 O         3.457250        -0.080809         1.012749
 C         2.766092         2.239247        -0.089913
 H         0.531899         3.353144        -0.614932
 H         1.328576         3.845193        -2.109934
 H        -0.059892         2.490303        -2.129512
 H         2.772717         1.095243        -3.296075
 H         4.026807         1.991698        -2.409825
 H         4.119879        -1.493496        -0.963925
 H         0.931087        -0.301426        -0.480724
 H         2.751013        -0.121225         1.737293
 H         2.013392         2.761712         0.592004
 H         3.658724         3.019551        -0.169882
