19
Iteration:  1759
 C         0.821549         2.818804        -1.808390
 C         2.053335         2.001282        -1.301824
 C         3.150791         1.517850        -2.314056
 C         3.140564         0.291469        -1.357490
 O         3.604992        -0.994008        -1.612814
 C         1.763696         0.485110        -0.869037
 C         2.952969         0.640204         0.061898
 O         3.705639        -0.066338         1.092509
 C         2.675350         2.126071         0.059305
 H         0.193398         2.749539        -0.944922
 H         1.180670         3.836979        -1.939061
 H         0.428989         2.506614        -2.756874
 H         2.599206         1.075009        -3.146721
 H         4.011404         2.159056        -2.483265
 H         4.405702        -1.170721        -1.050330
 H         0.987607        -0.244562        -1.292858
 H         3.312635         0.216739         1.978522
 H         1.959394         2.414614         0.762024
 H         3.492760         2.778109         0.168127
