19
Iteration:  2839charge 0 multiplicity 1
 C         0.865710         2.891018        -1.605662
 C         1.996528         1.916713        -1.327676
 C         3.051934         1.321693        -2.347866
 C         3.191520         0.245982        -1.342786
 O         3.742059        -1.073001        -1.734060
 C         1.806443         0.495035        -0.826321
 C         3.004673         0.771990         0.094802
 O         3.444336        -0.027416         1.183438
 C         2.802351         2.304275        -0.053657
 H         0.152643         2.965064        -0.742012
 H         1.207067         3.916787        -1.833073
 H         0.337730         2.468944        -2.441951
 H         2.606592         1.215270        -3.286198
 H         3.855260         2.034854        -2.652824
 H         4.690334        -0.963864        -1.647843
 H         0.918462        -0.236662        -0.721143
 H         2.888922        -0.834938         1.035251
 H         2.172018         2.771402         0.743802
 H         3.797413         2.835136        -0.113141
