19
Iteration:  1381
 C         0.882335         2.867724        -1.743349
 C         1.937976         1.936115        -1.299250
 C         2.962975         1.409665        -2.408971
 C         3.226075         0.316839        -1.344259
 O         3.744608        -0.953436        -1.564769
 C         1.755524         0.428271        -0.833871
 C         3.060464         0.684662         0.119873
 O         3.520613        -0.076683         1.163401
 C         2.753985         2.256922        -0.057065
 H         0.334819         2.897907        -0.818565
 H         1.312608         3.820161        -2.065840
 H         0.094813         2.507168        -2.466933
 H         2.348667         0.995650        -3.299400
 H         3.785986         2.119420        -2.671058
 H         4.683174        -0.955996        -1.378690
 H         1.000339        -0.410256        -1.058398
 H         3.731278        -0.969726         0.934368
 H         2.143371         2.589322         0.810195
 H         3.606330         3.016662        -0.134504
