19
Iteration:  1447charge 0 multiplicity 1
 C         0.866357         2.851150        -1.864626
 C         1.907449         1.874471        -1.309578
 C         3.068503         1.457465        -2.196434
 C         3.191187         0.265867        -1.347878
 O         3.685952        -1.013333        -1.610671
 C         1.728127         0.361852        -0.809097
 C         2.933396         0.722090         0.127823
 O         3.617639         0.028225         1.124861
 C         2.796424         2.234247         0.065198
 H         0.056111         2.920755        -1.113660
 H         1.293412         3.856367        -1.910109
 H         0.287294         2.699280        -2.817578
 H         2.807806         1.312356        -3.360921
 H         3.984353         2.172236        -2.266947
 H         4.108707        -1.001777        -2.496813
 H         0.947066        -0.345571        -0.793376
 H         4.122945        -0.604136         0.546954
 H         2.199057         2.632071         0.912434
 H         3.672885         2.839761        -0.276548
