19
Iteration:  1732
 C         0.829996         2.882072        -1.798527
 C         1.937953         1.886408        -1.298155
 C         3.077542         1.482457        -2.220909
 C         3.175693         0.237072        -1.343204
 O         3.729056        -1.030827        -1.705531
 C         1.830841         0.383829        -0.754561
 C         2.975998         0.781885         0.075905
 O         3.556191        -0.106190         1.004730
 C         2.723338         2.294870         0.041043
 H         0.166374         3.097094        -0.912516
 H         1.598481         3.648553        -2.023552
 H         0.240844         2.628674        -2.730066
 H         2.803093         0.963995        -3.144931
 H         3.883037         2.233911        -2.260855
 H         4.661806        -1.113044        -1.399486
 H         0.998469        -0.289906        -0.687765
 H         2.976589        -0.092286         1.829947
 H         2.007999         2.788591         0.823653
 H         3.720152         2.864878        -0.089530
