19
Iteration:   557charge 0 multiplicity 1
 C         0.792703         2.821744        -1.677525
 C         2.014168         1.932815        -1.341882
 C         3.050654         1.384792        -2.315949
 C         3.108456         0.243608        -1.451646
 O         3.928472        -0.962450        -1.674687
 C         1.778140         0.455157        -0.787562
 C         3.023815         0.750563         0.061337
 O         3.442212        -0.102305         1.048613
 C         2.795662         2.309935         0.044236
 H         0.157935         2.898109        -0.757776
 H         1.005965         3.905000        -2.052675
 H         0.114053         2.319419        -2.427192
 H         2.661568         1.099718        -3.254440
 H         4.014351         1.775714        -2.483241
 H         4.060254        -1.391728        -0.825721
 H         0.920439        -0.089487        -0.505373
 H         2.848021         0.051014         1.768657
 H         2.081295         2.645727         0.734464
 H         3.690964         2.965495         0.054714
