19
Iteration:  4077charge 0 multiplicity 1
 C         0.823762         2.895957        -1.846458
 C         1.928606         1.931905        -1.284904
 C         3.094121         1.410343        -2.239399
 C         3.190180         0.218977        -1.436403
 O         3.850868        -1.003471        -1.508767
 C         1.759214         0.464810        -0.837932
 C         3.008730         0.679612         0.078339
 O         3.466123        -0.027064         1.173610
 C         2.790046         2.229084        -0.026024
 H         0.202085         2.880040        -0.963951
 H         1.166792         3.928238        -1.887054
 H         0.108336         2.764663        -2.596354
 H         2.622391         1.091863        -3.297816
 H         3.803372         2.221459        -2.384054
 H         4.212470        -0.763354        -2.419494
 H         1.014150        -0.247743        -0.858060
 H         3.347413        -1.025106         0.990415
 H         1.938521         2.522822         0.686378
 H         3.621477         3.072289        -0.161339
