19
Iteration:  1210
 C         0.809655         2.918603        -1.733220
 C         1.916385         1.908540        -1.249591
 C         2.966738         1.456615        -2.370080
 C         3.167718         0.267749        -1.452313
 O         3.844423        -1.005349        -1.522029
 C         1.829899         0.353351        -0.801080
 C         3.100409         0.714757         0.066697
 O         3.365437        -0.004027         1.188647
 C         2.829467         2.221301        -0.041153
 H         0.238126         3.255922        -0.838068
 H         1.275001         3.817161        -2.090042
 H         0.211008         2.348561        -2.455691
 H         2.687146         1.244652        -3.432397
 H         4.027922         1.988382        -2.596080
 H         4.741426        -0.895914        -1.891471
 H         0.948904        -0.432260        -0.680978
 H         3.714567        -0.767077         0.709938
 H         2.125870         2.483433         0.717859
 H         3.462375         2.944584        -0.506040
