19
Iteration:  1366
 C         0.766548         2.894253        -1.637179
 C         1.904273         1.878229        -1.381008
 C         3.016436         1.469513        -2.305361
 C         3.194960         0.231421        -1.404501
 O         3.796259        -0.991224        -1.585224
 C         1.862813         0.411450        -0.771751
 C         3.010864         0.762950         0.020014
 O         3.410949        -0.014042         1.195993
 C         2.875651         2.170657        -0.081877
 H         0.096594         3.224981        -0.821820
 H         1.287809         3.784649        -2.108175
 H         0.206204         2.500815        -2.459041
 H         2.636234         0.969528        -3.276205
 H         3.829222         2.274788        -2.546191
 H         4.749526        -0.825213        -1.649225
 H         1.056026        -0.319481        -0.653764
 H         3.470918        -0.913956         0.781127
 H         2.289739         2.721323         0.646040
 H         3.717825         2.772205        -0.316544
