19
Iteration:  3624charge 0 multiplicity 1
 C         0.849926         2.916413        -1.737849
 C         1.932728         1.873041        -1.302356
 C         3.002836         1.399934        -2.365790
 C         3.224488         0.252811        -1.350538
 O         3.903936        -0.951985        -1.664720
 C         1.753795         0.406956        -0.780599
 C         3.042157         0.717770         0.056882
 O         3.339925        -0.101675         1.097458
 C         2.826457         2.302386         0.020826
 H         0.217605         3.111376        -0.823190
 H         1.223960         3.837433        -2.248589
 H         0.179392         2.488338        -2.517840
 H         2.599772         1.024030        -3.320042
 H         3.935634         2.031765        -2.351535
 H         3.598118        -1.716865        -1.145231
 H         0.809601        -0.125623        -0.567833
 H         4.211130         0.078241         1.464066
 H         2.156793         2.870451         0.784795
 H         3.816263         2.752883        -0.070741
