19
Iteration:  3816charge 0 multiplicity 1
 C         0.787000         2.804968        -1.786902
 C         2.002272         2.014437        -1.307230
 C         3.077153         1.425472        -2.328996
 C         3.225113         0.258306        -1.421109
 O         3.801654        -1.015201        -1.704662
 C         1.801034         0.569890        -0.774235
 C         3.084078         0.696796         0.041651
 O         3.359824        -0.034137         1.189348
 C         2.743830         2.157587         0.025584
 H         0.129956         3.182911        -0.911164
 H         1.114593         3.818428        -2.229342
 H         0.234608         2.064849        -2.430183
 H         2.652852         1.070774        -3.313665
 H         3.959134         2.049628        -2.584180
 H         3.856195        -1.495681        -0.868227
 H         0.972198        -0.078342        -0.807049
 H         4.284449        -0.200207         1.484681
 H         2.079999         2.361842         0.876465
 H         3.722266         2.816367         0.255958
