19
Iteration:  3359charge 0 multiplicity 1
 C         0.862396         2.772135        -1.803427
 C         1.987709         1.961975        -1.295507
 C         3.168283         1.445786        -2.310980
 C         3.218697         0.279307        -1.336056
 O         3.718594        -0.907983        -1.706134
 C         1.814589         0.391385        -0.796082
 C         2.995914         0.681928         0.101158
 O         3.397034        -0.107874         1.073023
 C         2.755615         2.323606         0.048894
 H         0.219590         2.912632        -0.881434
 H         1.242522         3.730592        -2.119404
 H         0.122982         2.326289        -2.466738
 H         2.747963         0.985568        -3.153534
 H         4.021961         2.041667        -2.599023
 H         3.623719        -1.616907        -1.064505
 H         0.861461        -0.121479        -0.712397
 H         4.237712         0.079378         1.475060
 H         2.187264         2.420365         0.971827
 H         3.483099         3.151012        -0.004168
