19
Iteration:  3611charge 0 multiplicity 1
 C         0.908340         2.873344        -1.713333
 C         1.945509         1.947258        -1.280887
 C         3.048432         1.346208        -2.308473
 C         3.095774         0.184090        -1.401234
 O         3.922969        -0.879785        -1.625338
 C         1.763219         0.421486        -0.808465
 C         2.945018         0.774788         0.007590
 O         3.365805        -0.058864         1.105399
 C         2.836113         2.174700        -0.015849
 H         0.215340         3.281537        -0.880073
 H         1.428505         3.802114        -1.925488
 H         0.286046         2.464401        -2.551840
 H         2.492996         1.173724        -3.270081
 H         3.859918         2.070716        -2.718282
 H         3.579638        -1.566199        -1.011768
 H         1.073739        -0.422329        -0.577570
 H         4.314451         0.165961         1.311198
 H         2.307650         2.400611         1.013309
 H         3.549298         2.912751        -0.207136
