19
Iteration:  1322
 C         0.803647         2.746905        -1.658982
 C         2.068101         1.918761        -1.313351
 C         3.080287         1.363419        -2.423744
 C         3.174162         0.242979        -1.370623
 O         3.740461        -0.961391        -1.743042
 C         1.776791         0.474474        -0.822093
 C         2.942559         0.724279         0.105913
 O         3.444554         0.113744         1.286312
 C         2.841504         2.171686        -0.043173
 H         0.132099         2.846580        -0.776698
 H         1.017053         3.824985        -1.850337
 H         0.233096         2.389864        -2.475165
 H         2.607297         1.128164        -3.452564
 H         4.090247         1.931591        -2.663647
 H         4.710937        -0.826858        -1.733237
 H         0.833994         0.072928        -0.716863
 H         3.751989        -0.809542         1.052487
 H         2.007303         2.429478         0.632384
 H         3.646950         2.797403         0.226943
