19
Iteration:  3070
 C         0.906179         2.799732        -1.797014
 C         1.983308         1.955997        -1.343609
 C         3.105855         1.408083        -2.303818
 C         3.080392         0.264013        -1.394066
 O         3.672503        -0.977645        -1.681623
 C         1.813795         0.480689        -0.819504
 C         2.952295         0.740989         0.134846
 O         3.634284        -0.073433         1.083362
 C         2.708522         2.273379         0.129896
 H         0.348975         2.991803        -0.867906
 H         1.355049         3.824854        -1.941968
 H         0.314572         2.460102        -2.662873
 H         2.770043         1.037473        -3.289367
 H         3.996301         2.041350        -2.619465
 H         4.460873        -1.116487        -1.164802
 H         0.991076        -0.309484        -0.782173
 H         2.888613        -0.699456         1.332216
 H         1.893112         2.709405         0.839278
 H         3.708381         2.733133         0.064688
