19
Iteration:  3251
 C         0.884449         2.831923        -1.761927
 C         1.927306         1.922834        -1.218165
 C         3.138733         1.460515        -2.266759
 C         3.240719         0.254666        -1.477710
 O         3.767066        -0.974143        -1.600996
 C         1.656331         0.446142        -0.770470
 C         2.971946         0.671962        -0.044345
 O         3.503097        -0.091880         1.015850
 C         2.775702         2.220991         0.042908
 H         0.069931         3.006809        -0.981128
 H         1.218860         3.824875        -1.930114
 H         0.576873         2.526706        -2.756820
 H         2.538259         1.255093        -3.214510
 H         4.040753         2.135228        -2.422826
 H         4.183597        -1.092623        -0.725316
 H         0.668289        -0.165623        -0.657590
 H         3.580481         0.354040         1.842724
 H         2.155000         2.608220         0.820005
 H         3.741989         2.813835        -0.045275
