19
Iteration:   809charge 0 multiplicity 1
 C         0.848426         2.847481        -1.713171
 C         1.978503         1.916144        -1.358447
 C         3.138736         1.440261        -2.265855
 C         3.181954         0.260534        -1.313976
 O         3.749708        -1.015049        -1.547572
 C         1.716924         0.461514        -0.892030
 C         2.926156         0.709569         0.065089
 O         3.654406        -0.011206         1.014097
 C         2.680979         2.185122         0.016867
 H         0.068625         3.087086        -0.975803
 H         1.178312         3.864715        -2.086066
 H         0.245363         2.476203        -2.562982
 H         2.773115         1.033935        -3.248143
 H         3.804845         2.263808        -2.550305
 H         4.642802        -0.993609        -1.256028
 H         0.806297        -0.172199        -1.018242
 H         3.076334        -0.487299         1.672580
 H         1.888132         2.550522         0.740565
 H         3.635689         2.874026        -0.023037
