19
Iteration:  4032charge 0 multiplicity 1
 C         0.953205         2.842246        -1.756653
 C         2.004024         1.959249        -1.354276
 C         3.051198         1.443740        -2.243860
 C         3.130215         0.168129        -1.403540
 O         3.767898        -0.991125        -1.622335
 C         1.696383         0.325145        -0.816614
 C         3.028336         0.740268         0.053952
 O         3.467793         0.006826         1.163738
 C         2.668359         2.269778         0.043491
 H         0.132673         2.865792        -1.079802
 H         1.501003         3.754963        -2.009788
 H         0.547412         2.532666        -2.704292
 H         2.563217         1.344783        -3.312661
 H         4.031401         1.890139        -2.481113
 H         4.741014        -0.871114        -1.515555
 H         0.650338        -0.075566        -0.950909
 H         4.418017        -0.175246         0.880144
 H         1.882414         2.452091         0.882303
 H         3.610015         2.971475        -0.013934
