19
Iteration:  2413charge 0 multiplicity 1
 C         0.909061         2.923066        -1.817917
 C         1.932388         1.890152        -1.301157
 C         3.073660         1.442651        -2.297156
 C         3.150516         0.277241        -1.350123
 O         3.721853        -1.001046        -1.685060
 C         1.704808         0.434836        -0.754181
 C         2.899627         0.703007         0.174423
 O         3.668566        -0.124730         1.034898
 C         2.746932         2.256252         0.033668
 H         0.340629         3.262703        -0.930762
 H         1.278281         3.789403        -2.346380
 H         0.264654         2.514586        -2.545972
 H         2.823163         1.080136        -3.322637
 H         3.903523         2.121305        -2.460235
 H         4.601192        -0.957455        -1.243010
 H         0.937768        -0.253390        -0.946122
 H         3.099497        -0.333042         1.839030
 H         2.016783         2.690222         0.800231
 H         3.723082         2.892414        -0.075821
