19
Iteration:  1399
 C         0.890382         2.865280        -1.764223
 C         2.002960         1.945679        -1.291050
 C         3.013962         1.368088        -2.349084
 C         3.154293         0.231954        -1.397586
 O         3.744929        -1.017626        -1.598844
 C         1.807291         0.469995        -0.824177
 C         2.901621         0.742588         0.113810
 O         3.636346         0.011389         1.065758
 C         2.669579         2.235133         0.142589
 H         0.038334         3.207644        -1.142034
 H         1.306769         3.850080        -2.102843
 H         0.442633         2.417712        -2.645607
 H         2.458160         0.931831        -3.240091
 H         3.839104         1.961921        -2.872765
 H         4.648807        -0.897682        -1.291988
 H         0.848402        -0.179197        -0.752235
 H         3.826614        -0.787488         0.579062
 H         1.841778         2.490555         0.814036
 H         3.607884         2.730134         0.246914
