19
Iteration:  1095charge 0 multiplicity 1
 C         0.876888         2.837331        -1.771148
 C         1.969483         1.942580        -1.395991
 C         3.040959         1.438448        -2.407423
 C         3.096792         0.309004        -1.325539
 O         3.855114        -0.971825        -1.537239
 C         1.718036         0.454865        -0.753237
 C         2.922709         0.698529         0.102507
 O         3.655709        -0.141995         0.998604
 C         2.666164         2.226636         0.083318
 H         0.182759         3.299775        -1.057033
 H         1.442294         3.784863        -2.066380
 H         0.361113         2.603189        -2.682786
 H         2.591985         0.976782        -3.340901
 H         3.891768         2.125699        -2.628393
 H         4.669443        -0.896246        -1.045520
 H         0.800177        -0.259297        -0.731517
 H         3.378561        -0.207464         1.900937
 H         1.791667         2.583493         0.579744
 H         3.468531         2.842395        -0.082296
