19
Iteration:   106
 C         0.836864         2.853750        -1.811061
 C         1.981641         2.002914        -1.246531
 C         2.977394         1.388760        -2.335253
 C         3.083025         0.235125        -1.428936
 O         3.749326        -0.944341        -1.617482
 C         1.786617         0.436371        -0.831606
 C         3.083634         0.736343         0.017655
 O         3.602731        -0.020571         1.105577
 C         2.758842         2.135199         0.111040
 H        -0.061811         2.952317        -1.155794
 H         1.286019         3.761979        -2.179136
 H         0.522721         2.360539        -2.755869
 H         2.544288         1.280021        -3.315921
 H         3.941057         1.940979        -2.443039
 H         4.617568        -0.962767        -1.099160
 H         1.074482        -0.255434        -0.862771
 H         2.868929        -0.525927         1.382625
 H         2.143011         2.352552         1.079928
 H         3.576567         3.002452         0.452034
