19
Iteration:  4491
 C         0.908757         2.864062        -1.857058
 C         1.964049         1.941582        -1.262950
 C         3.124133         1.392765        -2.250241
 C         3.172680         0.253943        -1.293482
 O         3.946395        -0.971514        -1.650269
 C         1.735903         0.445883        -0.886134
 C         2.856283         0.720219         0.154937
 O         3.526159        -0.024610         1.107401
 C         2.584284         2.221046         0.075814
 H         0.145958         2.902254        -1.108043
 H         1.155724         3.941236        -1.984296
 H         0.495084         2.429586        -2.783292
 H         2.879112         1.149132        -3.377777
 H         4.175626         1.797505        -2.113410
 H         3.283138        -1.388207        -2.201165
 H         0.920745        -0.224200        -0.823273
 H         4.364595        -0.286872         0.766942
 H         1.667551         2.504862         0.738909
 H         3.442145         2.968661         0.030102
