19
Iteration:  3207charge 0 multiplicity 1
 C         0.830617         2.881648        -1.787126
 C         1.923166         1.948164        -1.292337
 C         3.175142         1.433120        -2.292377
 C         3.142917         0.251677        -1.311852
 O         3.733226        -0.993941        -1.707081
 C         1.815228         0.484679        -0.807253
 C         2.938500         0.734192         0.124796
 O         3.584418        -0.075176         1.061661
 C         2.725905         2.208416         0.030748
 H         0.199165         3.184938        -0.906082
 H         1.203898         3.802304        -2.190024
 H         0.306399         2.433422        -2.617809
 H         2.657305         1.213991        -3.274325
 H         4.180503         1.955922        -2.426717
 H         4.364940        -1.390385        -1.067786
 H         0.985990        -0.293466        -0.742585
 H         2.982664        -0.626621         1.552798
 H         2.127519         2.524776         0.832897
 H         3.532840         2.927568        -0.193725
