19
Iteration:  2819
 C         0.821850         2.875629        -1.661518
 C         2.040072         1.924705        -1.257344
 C         3.014058         1.458096        -2.365151
 C         3.162934         0.228409        -1.484801
 O         3.733298        -1.044621        -1.571408
 C         1.852849         0.416819        -0.795365
 C         3.078378         0.734503        -0.040907
 O         3.376763         0.020546         1.086580
 C         2.887573         2.197790         0.031104
 H         0.087090         2.870261        -0.822316
 H         1.229902         3.991742        -1.700256
 H         0.211074         2.559907        -2.511082
 H         2.491287         1.081987        -3.318977
 H         3.901218         2.006534        -2.686821
 H         4.672168        -1.130902        -1.408747
 H         0.965295        -0.250583        -0.374940
 H         2.639899        -0.635823         1.247510
 H         2.262656         2.676070         0.791514
 H         3.726524         3.110751         0.044546
