19
Iteration:  1203
 C         0.839150         2.867567        -1.680745
 C         1.918139         1.934703        -1.245678
 C         3.036206         1.455624        -2.416445
 C         3.206845         0.229563        -1.458634
 O         3.850672        -1.050698        -1.563562
 C         1.830164         0.381678        -0.797643
 C         3.110964         0.785171         0.062545
 O         3.327132         0.010167         1.212727
 C         2.770759         2.200463        -0.076102
 H         0.190944         3.107858        -0.807857
 H         1.253062         3.819224        -2.136266
 H         0.194048         2.388827        -2.388913
 H         2.347770         1.286921        -3.327308
 H         3.862663         2.010838        -2.689177
 H         4.624090        -0.741411        -2.000715
 H         1.147077        -0.398511        -0.602557
 H         3.465981        -0.902698         0.909680
 H         2.284920         2.632782         0.859432
 H         3.474888         3.113075        -0.221429
