19
Iteration:  1122
 C         0.861327         2.814744        -1.840610
 C         1.927457         1.989909        -1.244690
 C         3.057486         1.446981        -2.254509
 C         3.182422         0.273430        -1.399610
 O         3.746487        -1.068731        -1.637588
 C         1.801530         0.418840        -0.773762
 C         3.019301         0.708972        -0.004161
 O         3.601692         0.031428         1.052732
 C         2.697765         2.222384         0.098560
 H        -0.014705         2.976433        -1.203699
 H         1.155054         3.838700        -1.977346
 H         0.474157         2.497576        -2.850025
 H         2.581832         1.081722        -3.161592
 H         3.970994         2.125648        -2.299044
 H         4.477392        -1.100230        -1.030215
 H         1.014633        -0.281854        -0.700025
 H         3.069890        -0.631148         1.468583
 H         1.917071         2.485712         0.833014
 H         3.460091         3.028951        -0.080786
