19
Iteration:  2895
 C         0.965723         2.902433        -1.800751
 C         1.976356         1.947848        -1.235865
 C         3.036796         1.499380        -2.262618
 C         3.159030         0.173737        -1.397468
 O         3.662840        -1.122705        -1.679321
 C         1.770003         0.426442        -0.799614
 C         3.006114         0.724362         0.044071
 O         3.546541         0.012352         1.122242
 C         2.700666         2.240414         0.036413
 H         0.240320         3.207298        -1.057192
 H         1.581719         3.787821        -2.189240
 H         0.391967         2.500311        -2.608171
 H         2.364371         1.342677        -3.062655
 H         3.869450         2.299595        -2.242220
 H         4.646134        -0.946020        -1.745039
 H         0.834394        -0.088307        -0.467591
 H         3.917815        -0.798704         0.805595
 H         2.200688         2.367956         0.958389
 H         3.459613         3.039464         0.130913
