19
Iteration:  4658charge 0 multiplicity 1
 C         0.958694         2.899632        -1.780813
 C         1.974563         1.929071        -1.319808
 C         3.072691         1.417066        -2.261310
 C         3.224555         0.276106        -1.377376
 O         3.764657        -0.960635        -1.600506
 C         1.779802         0.393731        -0.873130
 C         2.860672         0.663954         0.136605
 O         3.576391        -0.004689         1.025466
 C         2.615889         2.210242         0.064878
 H         0.008820         2.887787        -1.242350
 H         1.417077         3.905247        -1.922939
 H         0.712330         2.475761        -2.734593
 H         2.492327         1.064396        -3.095832
 H         3.955316         2.004458        -2.429421
 H         4.741658        -0.846536        -1.531991
 H         1.022998        -0.320736        -0.859168
 H         3.064605        -0.521173         1.683993
 H         1.911935         2.516904         0.908442
 H         3.612534         2.731168        -0.026374
