19
Iteration:  1848
 C         0.900414         2.911039        -1.691585
 C         1.988785         2.024332        -1.242867
 C         2.865796         1.363129        -2.357510
 C         3.110766         0.162209        -1.423636
 O         4.035059        -0.902322        -1.649393
 C         1.715158         0.430099        -0.794441
 C         2.970433         0.682454         0.047174
 O         3.404444        -0.057235         1.012414
 C         2.894404         2.194011         0.056078
 H         0.367339         3.231667        -0.791138
 H         1.445658         3.663099        -2.344943
 H         0.205061         2.483101        -2.487540
 H         2.245353         0.957013        -3.193040
 H         3.663727         2.107354        -2.509386
 H         4.414584        -1.207142        -0.797679
 H         0.810929        -0.287202        -0.792910
 H         2.690927        -0.147265         1.726275
 H         2.242167         2.481263         0.844739
 H         3.780928         2.792314         0.028910
