19
Iteration:  1659
 C         0.780669         2.940398        -1.637536
 C         1.908058         1.829874        -1.335892
 C         3.084311         1.415460        -2.304427
 C         3.203759         0.248644        -1.347843
 O         3.801184        -0.963714        -1.668634
 C         1.836033         0.415190        -0.839968
 C         3.043192         0.763995         0.043008
 O         3.441549        -0.054277         1.148046
 C         2.828879         2.252297        -0.101686
 H         0.295303         3.103056        -0.690295
 H         1.410302         3.773955        -1.923509
 H         0.003143         2.755272        -2.322723
 H         2.482854         1.134758        -3.239378
 H         3.953011         2.085334        -2.530144
 H         4.201617        -1.376064        -0.907411
 H         1.015305        -0.201165        -0.695161
 H         2.920721        -0.853295         1.176332
 H         2.231893         2.513096         0.731948
 H         3.626263         2.892050        -0.363065
