19
Iteration:    32charge 0 multiplicity 1
 C         0.827944         2.854587        -1.607943
 C         2.012816         1.926890        -1.341460
 C         2.989540         1.470256        -2.391034
 C         3.215165         0.214933        -1.492257
 O         3.787729        -1.089593        -1.586037
 C         1.851223         0.455727        -0.932315
 C         2.956109         0.689417         0.038237
 O         3.428321         0.105807         1.205418
 C         2.820608         2.226968         0.040895
 H         0.266979         3.004075        -0.621227
 H         1.212238         3.867871        -1.906430
 H         0.131158         2.369022        -2.356365
 H         2.592438         1.176799        -3.364264
 H         3.839904         2.230856        -2.402129
 H         4.785112        -1.083723        -1.620676
 H         1.066620        -0.207219        -0.820408
 H         3.291538        -0.900616         1.178077
 H         1.865160         2.353228         0.682844
 H         3.649786         2.796436         0.170226
