19
Iteration:   233charge 0 multiplicity 1
 C         0.831850         2.861626        -1.775675
 C         1.888456         1.912858        -1.311044
 C         3.020522         1.477497        -2.243124
 C         3.164394         0.196622        -1.402102
 O         3.831606        -1.018808        -1.701067
 C         1.770130         0.452599        -0.783209
 C         3.067149         0.718497         0.072047
 O         3.547560        -0.076139         1.126635
 C         2.753585         2.316226        -0.030533
 H         0.158892         3.008255        -0.884346
 H         1.319775         3.904355        -1.834235
 H         0.223528         2.665881        -2.687033
 H         2.638260         1.375796        -3.328851
 H         4.050503         1.954766        -2.315319
 H         4.309569        -1.303603        -0.897026
 H         0.891114        -0.350852        -0.627659
 H         2.843851        -0.727914         1.408509
 H         2.211787         2.714904         0.853370
 H         3.577390         2.972033        -0.200316
