19
Iteration:   978charge 0 multiplicity 1
 C         0.779820         2.746009        -1.829782
 C         1.992180         1.982895        -1.220057
 C         3.118014         1.474456        -2.289533
 C         3.094073         0.258483        -1.422049
 O         3.729558        -1.021350        -1.594229
 C         1.757990         0.423657        -0.862212
 C         3.060563         0.715707         0.031693
 O         3.563307         0.038252         1.120072
 C         2.771903         2.203916         0.064610
 H        -0.149917         2.951217        -1.287080
 H         1.085071         3.795354        -1.944934
 H         0.485747         2.434311        -2.900073
 H         2.701988         1.432698        -3.267939
 H         4.094082         2.032688        -2.218970
 H         4.649917        -1.087980        -1.373171
 H         0.777448        -0.237396        -0.674363
 H         2.924439        -0.653839         1.414080
 H         2.336844         2.510742         1.035917
 H         3.754051         2.819056        -0.248316
