19
Iteration:  4420charge 0 multiplicity 1
 C         0.836492         2.790802        -1.673243
 C         2.024885         1.889528        -1.430948
 C         3.165213         1.393642        -2.356543
 C         3.225221         0.279632        -1.351489
 O         3.977812        -0.845688        -1.543112
 C         1.719305         0.490812        -0.836609
 C         2.907584         0.737267         0.072889
 O         3.364355        -0.067633         1.185575
 C         2.692352         2.204565        -0.010305
 H         0.191060         3.082139        -0.800386
 H         1.151251         3.778601        -2.012671
 H         0.286624         2.345048        -2.518940
 H         2.669000         1.220260        -3.307049
 H         4.064126         1.989698        -2.433803
 H         3.506104        -1.440015        -2.111255
 H         0.833392        -0.207791        -0.861331
 H         3.569330        -0.846559         0.681590
 H         2.024794         2.466455         0.748800
 H         3.622988         2.726339         0.001126
