19
Iteration:  1506charge 0 multiplicity 1
 C         0.784560         2.895012        -1.648127
 C         1.964453         1.892712        -1.281978
 C         3.013878         1.428965        -2.302927
 C         3.239658         0.245179        -1.383209
 O         3.959233        -0.951542        -1.633601
 C         1.789661         0.415103        -0.731749
 C         2.959277         0.736985         0.056725
 O         3.269248        -0.040162         1.084125
 C         2.891787         2.209202        -0.126622
 H         0.210956         3.155797        -0.710584
 H         1.092105         3.898024        -2.079498
 H         0.173569         2.385135        -2.368734
 H         2.584207         1.132931        -3.286911
 H         3.948601         1.983839        -2.294737
 H         3.393256        -1.695472        -1.747769
 H         0.992853        -0.415285        -0.471847
 H         4.208357        -0.187686         1.081179
 H         2.488827         2.762940         0.760822
 H         3.769928         2.898328        -0.455343
