19
Iteration:  4945charge 0 multiplicity 1
 C         0.959742         2.867602        -1.763626
 C         2.004486         1.971009        -1.275934
 C         2.999814         1.349108        -2.330980
 C         3.175348         0.270926        -1.335660
 O         3.979644        -0.889446        -1.544956
 C         1.587297         0.387427        -0.736385
 C         2.782896         0.658992         0.049582
 O         3.606742        -0.115487         0.907270
 C         2.705290         2.238534         0.022769
 H         0.147664         3.239199        -1.087961
 H         1.504473         3.702993        -2.179978
 H         0.324943         2.638356        -2.667751
 H         2.334741         1.179480        -3.237976
 H         3.990699         1.926592        -2.598411
 H         4.499265        -1.052810        -0.768588
 H         0.616609        -0.105851        -0.688957
 H         3.327729        -0.025058         1.839534
 H         1.982121         2.686202         0.700153
 H         3.558119         2.887484        -0.051136
