19
Iteration:  2184
 C         0.810129         2.942201        -1.728485
 C         1.970592         1.947457        -1.280781
 C         3.038394         1.284137        -2.350535
 C         3.234555         0.256226        -1.260536
 O         3.851888        -0.888796        -1.710790
 C         1.752696         0.454359        -0.709462
 C         2.960563         0.744602         0.028103
 O         3.477658        -0.224068         1.069071
 C         2.799086         2.259331        -0.036707
 H         0.248677         3.340341        -0.818350
 H         1.222652         4.007687        -2.129529
 H         0.165771         2.703024        -2.605638
 H         2.412370         1.010978        -3.294712
 H         3.988993         1.860041        -2.626443
 H         4.396917        -1.118086        -0.918536
 H         0.999583        -0.327091        -0.839937
 H         2.746380        -0.229262         1.778458
 H         2.383640         2.919283         0.718629
 H         3.614060         2.898453        -0.320279
