19
Iteration:  1164charge 0 multiplicity 1
 C         0.791699         2.753920        -1.674210
 C         2.039513         1.941911        -1.324397
 C         3.162088         1.373903        -2.336321
 C         3.139062         0.217302        -1.369244
 O         3.753385        -0.965556        -1.816212
 C         1.783093         0.468262        -0.811645
 C         2.940368         0.683512         0.104041
 O         3.470628         0.131869         1.294130
 C         2.779546         2.258228        -0.026316
 H         0.065638         2.725162        -0.879675
 H         1.024034         3.803473        -1.863073
 H         0.401592         2.225755        -2.597586
 H         2.628775         1.110222        -3.250842
 H         4.089454         2.005966        -2.747304
 H         4.681955        -1.073005        -1.443965
 H         1.055872        -0.274249        -0.913363
 H         3.177227        -0.800557         1.337057
 H         2.176873         2.562663         0.780054
 H         3.726368         2.627710        -0.188802
