19
Iteration:  1157
 C         0.779546         2.733076        -1.729046
 C         2.033512         1.954965        -1.325623
 C         3.101032         1.468205        -2.267635
 C         3.153047         0.189480        -1.465709
 O         3.721325        -0.957567        -1.783588
 C         1.775700         0.441373        -0.836271
 C         2.989486         0.647635         0.111106
 O         3.501685         0.128601         1.305786
 C         2.792358         2.210918        -0.017888
 H        -0.009524         2.708440        -0.925692
 H         1.208107         3.736841        -1.862781
 H         0.400990         2.386770        -2.679005
 H         2.901193         1.089436        -3.330473
 H         4.027310         1.994894        -2.440139
 H         4.464667        -1.119842        -1.198591
 H         0.903327        -0.358529        -0.843303
 H         3.258975        -0.774751         1.456337
 H         2.286576         2.898239         0.764625
 H         3.729424         2.889014        -0.303454
