19
Iteration:  3187
 C         0.950580         2.889843        -1.781373
 C         1.927462         1.850923        -1.235261
 C         2.984290         1.517320        -2.265509
 C         3.190211         0.315370        -1.408634
 O         3.773444        -1.034779        -1.675326
 C         1.800455         0.353725        -0.788199
 C         3.064536         0.722914        -0.017171
 O         3.499911        -0.053535         1.136064
 C         2.757101         2.275000        -0.018476
 H         0.357129         3.175058        -0.832024
 H         1.411533         3.824131        -2.072775
 H         0.305683         2.521246        -2.557405
 H         2.637149         1.285855        -3.355568
 H         3.810165         2.225650        -2.365730
 H         4.124127        -1.352487        -0.847049
 H         0.901667        -0.366294        -0.638489
 H         2.622576        -0.449219         1.295698
 H         2.039170         2.419657         0.724768
 H         3.567455         2.953788         0.065724
