19
Iteration:    31
 C         0.832890         2.853292        -1.609509
 C         2.013716         1.928271        -1.332625
 C         2.984980         1.473043        -2.392905
 C         3.210652         0.217439        -1.505553
 O         3.794994        -1.101628        -1.580912
 C         1.854588         0.449158        -0.935127
 C         2.948827         0.685986         0.042324
 O         3.426755         0.110597         1.198662
 C         2.819509         2.240580         0.049837
 H         0.261294         3.015766        -0.616479
 H         1.227286         3.866264        -1.895921
 H         0.144436         2.343075        -2.359199
 H         2.567509         1.187725        -3.362532
 H         3.839643         2.245582        -2.388395
 H         4.761892        -1.089511        -1.632543
 H         1.082915        -0.200846        -0.818161
 H         3.294905        -0.900983         1.161752
 H         1.834876         2.344864         0.684284
 H         3.693944         2.802665         0.165070
