19
Iteration:  3345
 C         0.794117         2.877094        -1.753388
 C         1.973024         1.903681        -1.378049
 C         3.097260         1.455307        -2.250630
 C         3.234520         0.248332        -1.349507
 O         3.816099        -0.968691        -1.745640
 C         1.791339         0.463933        -0.745725
 C         2.985375         0.778729         0.092736
 O         3.394826        -0.179820         1.141466
 C         2.771272         2.235048        -0.013718
 H         0.224220         3.169982        -0.930383
 H         1.190606         3.815102        -2.254711
 H         0.258262         2.394722        -2.578246
 H         2.797720         1.231430        -3.254602
 H         3.928034         2.197020        -2.234047
 H         3.751709        -1.484735        -0.886115
 H         0.942036        -0.309324        -0.636155
 H         4.258055         0.256248         1.387895
 H         2.053260         2.809660         0.583491
 H         3.694138         2.671579        -0.135936
