19
Iteration:  2061
 C         0.838444         2.789179        -1.840077
 C         1.977035         2.049410        -1.183357
 C         3.001396         1.481143        -2.322840
 C         3.167616         0.219257        -1.370838
 O         3.818981        -0.954016        -1.673604
 C         1.754375         0.520174        -0.780665
 C         2.942831         0.643742         0.056724
 O         3.550041        -0.108847         1.046772
 C         2.870315         2.182172         0.103735
 H         0.012614         3.252588        -1.209800
 H         1.261770         3.616724        -2.495640
 H         0.331962         2.208263        -2.681346
 H         2.377990         1.372571        -3.233932
 H         3.876692         2.162418        -2.634511
 H         4.211394        -1.303078        -0.891562
 H         0.721536        -0.057894        -0.763177
 H         2.986311        -0.383224         1.832966
 H         2.144733         2.600416         0.906223
 H         3.794278         2.841453        -0.134829
