19
Iteration:  3925
 C         0.896680         2.923369        -1.688327
 C         1.891303         1.893596        -1.327142
 C         3.050770         1.398989        -2.341341
 C         3.193257         0.200744        -1.354792
 O         3.853152        -0.921105        -1.577612
 C         1.791254         0.401206        -0.855480
 C         2.975926         0.712589         0.057877
 O         3.394396        -0.098690         1.090912
 C         2.794956         2.244069        -0.060467
 H         0.279554         3.112968        -0.734536
 H         1.172736         4.023572        -1.932958
 H         0.335890         2.564656        -2.592038
 H         2.618420         1.088992        -3.359180
 H         3.840482         2.071194        -2.728977
 H         4.038822        -1.386564        -0.721440
 H         0.908819        -0.248092        -0.610335
 H         4.301114         0.015991         1.510449
 H         2.242441         2.604825         0.785534
 H         3.407160         3.095970        -0.377726
