19
Iteration:  3130charge 0 multiplicity 1
 C         0.916626         2.887055        -1.644168
 C         1.966356         1.937441        -1.312663
 C         3.103896         1.370540        -2.298619
 C         3.090858         0.222506        -1.361893
 O         3.900502        -0.860481        -1.645649
 C         1.697861         0.429939        -0.755640
 C         2.859109         0.720528         0.049956
 O         3.495050        -0.168860         1.003464
 C         2.786338         2.230496        -0.101489
 H         0.173228         2.979833        -0.815269
 H         1.354092         3.840988        -1.853293
 H         0.372503         2.626258        -2.560042
 H         2.780321         0.888853        -3.235578
 H         4.006046         1.994009        -2.225383
 H         4.106877        -1.217509        -0.745670
 H         0.813448        -0.128920        -0.723728
 H         3.302429         0.345918         1.821073
 H         2.173446         2.822089         0.473430
 H         3.776412         2.658218        -0.158370
