19
Iteration:  1073
 C         0.854643         2.913799        -1.718438
 C         1.908214         1.931090        -1.317042
 C         3.000953         1.405231        -2.230535
 C         3.121517         0.177713        -1.349895
 O         3.931755        -0.908271        -1.537109
 C         1.727772         0.341719        -0.888969
 C         2.950077         0.715127        -0.035207
 O         3.523475        -0.053004         0.990948
 C         2.789178         2.207920         0.014693
 H         0.169294         3.427601        -1.035158
 H         1.299350         3.833981        -2.217774
 H         0.269763         2.514458        -2.526055
 H         2.383744         1.206784        -3.160299
 H         3.918100         2.059060        -2.339586
 H         4.473620        -1.243320        -0.761739
 H         0.820585        -0.384750        -0.776707
 H         3.524205         0.302504         1.917883
 H         2.228406         2.561465         0.843979
 H         3.642941         2.713521        -0.289521
