19
Iteration:  3223
 C         0.815871         2.854452        -1.800288
 C         2.100588         2.073404        -1.340557
 C         3.122526         1.429951        -2.262352
 C         3.169036         0.190480        -1.425971
 O         3.737391        -0.980393        -1.680526
 C         1.640378         0.386815        -0.819654
 C         2.896612         0.678654         0.095203
 O         3.632374        -0.078547         1.061949
 C         2.779316         2.257585         0.115929
 H         0.110766         2.883130        -0.976620
 H         0.975055         3.924285        -2.173860
 H         0.298499         2.284496        -2.636907
 H         2.709825         1.094211        -3.211404
 H         4.004085         2.036024        -2.345059
 H         4.400733        -0.958463        -0.995354
 H         0.734811        -0.128729        -0.852738
 H         3.098590        -0.169598         1.860668
 H         1.960184         2.725228         0.777322
 H         3.744837         2.721086         0.313362
