19
Iteration:  1378charge 0 multiplicity 1
 C         0.871237         2.865354        -1.739011
 C         1.930470         1.911972        -1.318706
 C         2.957472         1.423220        -2.376365
 C         3.212078         0.303647        -1.346788
 O         3.742652        -0.953795        -1.563328
 C         1.785459         0.438553        -0.827272
 C         3.087493         0.674176         0.106666
 O         3.493595        -0.068249         1.170671
 C         2.763614         2.263255        -0.076985
 H         0.332436         2.992219        -0.790710
 H         1.238668         3.878885        -2.018481
 H         0.103119         2.531678        -2.424979
 H         2.436818         0.974257        -3.329333
 H         3.767923         2.210172        -2.691881
 H         4.736660        -0.850296        -1.398317
 H         1.036358        -0.418982        -1.027247
 H         3.692538        -1.013490         0.928586
 H         2.166588         2.578513         0.781932
 H         3.650725         2.837751        -0.178806
