19
Iteration:   735charge 0 multiplicity 1
 C         0.850536         2.856052        -1.795246
 C         1.963109         1.981288        -1.276278
 C         3.003806         1.499884        -2.344848
 C         3.212433         0.222069        -1.356221
 O         3.856144        -0.956835        -1.740987
 C         1.789597         0.342183        -0.751944
 C         2.931274         0.704806         0.133027
 O         3.508475        -0.061347         1.140688
 C         2.811946         2.238507        -0.011816
 H         0.001362         2.976246        -1.062902
 H         1.042277         3.912261        -2.253273
 H         0.298870         2.541391        -2.683543
 H         2.519608         1.188365        -3.252913
 H         3.982733         1.959627        -2.619177
 H         4.014153        -1.614272        -1.022753
 H         0.949670        -0.380499        -0.657052
 H         2.969180        -0.098521         1.935690
 H         2.224099         2.705949         0.745909
 H         3.659871         2.890566        -0.070193
