19
Iteration:  1921
 C         0.865469         2.769828        -1.802712
 C         2.011450         1.981178        -1.240559
 C         3.085872         1.549271        -2.270768
 C         3.079460         0.222065        -1.473787
 O         3.674033        -0.992244        -1.647733
 C         1.758604         0.477398        -0.872188
 C         3.045705         0.721054         0.045978
 O         3.647333        -0.047118         1.068980
 C         2.759091         2.171691         0.113178
 H        -0.058149         2.728570        -1.204978
 H         1.221855         3.763999        -2.140868
 H         0.725036         2.343269        -2.787688
 H         2.565462         1.208277        -3.211581
 H         3.998410         2.091798        -2.326227
 H         4.134351        -1.268653        -0.801112
 H         0.717782        -0.144506        -0.743723
 H         2.941512        -0.139315         1.733545
 H         2.007341         2.288628         0.996310
 H         3.582957         2.976871         0.366318
