19
Iteration:  2127charge 0 multiplicity 1
 C         0.822619         2.930781        -1.691134
 C         2.009507         1.967071        -1.310157
 C         3.055847         1.402336        -2.308633
 C         3.160949         0.241072        -1.336321
 O         3.757486        -0.973852        -1.648948
 C         1.712511         0.395541        -0.962489
 C         2.930010         0.669817         0.094078
 O         3.649485         0.006574         1.066613
 C         2.754964         2.180754         0.036790
 H         0.043483         2.872040        -0.884608
 H         1.396886         3.929603        -1.749186
 H         0.401589         2.771315        -2.712302
 H         2.598462         1.143520        -3.293220
 H         3.990063         2.009406        -2.478745
 H         4.077167        -1.398406        -0.790273
 H         0.941746        -0.323183        -1.002157
 H         3.123699        -0.054372         1.846874
 H         2.103304         2.339661         0.843295
 H         3.698906         2.667679        -0.116790
