19
Iteration:  4827
 C         0.853017         2.856017        -1.773691
 C         1.919736         1.910145        -1.188596
 C         3.132150         1.476138        -2.326094
 C         3.186987         0.176296        -1.370978
 O         3.819478        -1.031598        -1.635483
 C         1.775794         0.392834        -0.859220
 C         2.985927         0.702061         0.039243
 O         3.458231         0.035921         1.114037
 C         2.713565         2.200690         0.094352
 H        -0.103119         2.938739        -1.307986
 H         1.401014         3.738326        -1.924002
 H         0.600410         2.482147        -2.781551
 H         2.710583         1.437055        -3.293886
 H         4.028130         2.053246        -2.354191
 H         4.164952        -0.974178        -2.523549
 H         1.059043        -0.346313        -0.810624
 H         3.355301         0.362910         1.991559
 H         2.177886         2.721291         0.887076
 H         3.593837         2.866954        -0.293266
