19
Iteration:  4008
 C         0.800948         2.948703        -1.850293
 C         1.881464         1.906542        -1.393024
 C         3.099976         1.444392        -2.273905
 C         3.267416         0.182771        -1.408993
 O         3.731264        -1.015470        -1.657240
 C         1.820952         0.457835        -0.730293
 C         3.026288         0.704319         0.073672
 O         3.418596        -0.073718         1.142175
 C         2.766845         2.249078         0.119069
 H        -0.006092         3.047761        -1.151028
 H         1.361279         3.788801        -2.217030
 H         0.279015         2.552633        -2.744967
 H         2.710458         1.129439        -3.276624
 H         3.942584         2.075607        -2.553664
 H         4.604995        -1.228123        -1.208818
 H         1.042954        -0.317096        -0.409454
 H         4.392227         0.119114         1.093524
 H         1.941360         2.458914         0.885164
 H         3.596203         2.999035         0.009971
