19
Iteration:  4097
 C         0.877731         2.840165        -1.710313
 C         2.002773         1.900956        -1.335021
 C         3.077325         1.499443        -2.352268
 C         3.219946         0.212036        -1.461017
 O         3.876091        -0.972844        -1.514124
 C         1.758962         0.388305        -0.784510
 C         2.994231         0.747400         0.077238
 O         3.392185        -0.011273         1.103616
 C         2.758819         2.266167         0.050118
 H         0.000448         3.098879        -1.150645
 H         1.205682         3.791494        -2.182072
 H         0.490893         2.248782        -2.546658
 H         2.567935         1.044389        -3.213601
 H         3.953858         2.109813        -2.476398
 H         3.875507        -1.282336        -2.463700
 H         0.884826        -0.150473        -0.501348
 H         3.114844        -0.967399         1.114931
 H         2.020028         2.545734         0.878173
 H         3.562723         2.986073        -0.071576
