19
Iteration:  2456charge 0 multiplicity 1
 C         0.898400         2.886122        -1.698082
 C         1.971044         1.922558        -1.262304
 C         3.040286         1.408769        -2.308998
 C         3.149133         0.136721        -1.401786
 O         3.747469        -1.044515        -1.736538
 C         1.765940         0.472324        -0.757122
 C         3.048156         0.716792         0.018576
 O         3.506133         0.062089         1.130272
 C         2.769196         2.269338         0.033114
 H        -0.014510         2.936383        -1.058528
 H         1.423130         3.774283        -1.659148
 H         0.622382         2.865726        -2.758112
 H         2.497563         1.268292        -3.268801
 H         3.928601         2.118402        -2.521737
 H         4.475031        -1.233951        -1.150398
 H         0.982377        -0.239533        -0.690276
 H         3.000716        -0.733345         1.376273
 H         2.034333         2.293530         0.800089
 H         3.527636         2.847016        -0.233285
