19
Iteration:  2778
 C         0.851867         2.905093        -1.721632
 C         1.966460         1.949973        -1.323145
 C         3.146131         1.358246        -2.293727
 C         3.187524         0.216574        -1.356345
 O         3.713675        -0.960286        -1.694784
 C         1.716667         0.422181        -0.809050
 C         2.904507         0.764164         0.122337
 O         3.612847        -0.074286         1.003425
 C         2.796665         2.228710         0.015371
 H         0.090213         2.910614        -0.976530
 H         1.201039         3.941878        -1.991244
 H         0.274543         2.536222        -2.594817
 H         2.509945         1.103978        -3.203928
 H         4.014687         1.974628        -2.266690
 H         4.034786        -1.269226        -0.803956
 H         0.845445        -0.305200        -0.719008
 H         3.147744        -0.135846         1.872342
 H         2.256089         2.918554         0.705951
 H         3.807187         2.663827         0.040605
