19
Iteration:   758
 C         0.933741         2.819925        -1.831437
 C         1.828836         1.867686        -1.260653
 C         2.969874         1.472297        -2.198455
 C         3.192090         0.215217        -1.434067
 O         3.798696        -0.956919        -1.671974
 C         1.735146         0.445127        -0.807883
 C         3.058989         0.720989        -0.036890
 O         3.550464        -0.011975         1.122477
 C         2.776033         2.161924         0.042658
 H         0.033391         3.116793        -1.260864
 H         1.464413         3.768751        -2.132048
 H         0.507137         2.641669        -2.808069
 H         2.498292         1.343488        -3.143680
 H         3.887236         2.102946        -2.263656
 H         4.394789        -1.225879        -0.921405
 H         0.983977        -0.185622        -0.733712
 H         3.035706         0.332547         1.879241
 H         2.330932         2.278118         1.012194
 H         3.581516         2.813514         0.095855
