19
Iteration:  2703charge 0 multiplicity 1
 C         0.952896         2.858130        -1.727139
 C         1.945168         1.921888        -1.283318
 C         3.013674         1.351764        -2.319572
 C         3.175598         0.262046        -1.310386
 O         3.724134        -0.943857        -1.785851
 C         1.781985         0.511961        -0.779246
 C         2.987071         0.692646         0.126325
 O         3.555946        -0.045991         1.120068
 C         2.758072         2.204845        -0.037415
 H         0.388759         3.238303        -0.903404
 H         1.463789         3.721865        -2.103284
 H         0.222788         2.467656        -2.466469
 H         2.683923         0.922979        -3.350262
 H         3.914259         2.096513        -2.515105
 H         4.085616        -1.436717        -1.032475
 H         1.021936        -0.358638        -0.779590
 H         2.894182        -0.261041         1.804483
 H         2.248753         2.771458         0.794635
 H         3.462918         2.963611        -0.214087
