19
Iteration:  2192charge 0 multiplicity 1
 C         0.849659         2.886072        -1.762397
 C         1.931570         1.992102        -1.335363
 C         3.014547         1.364347        -2.370974
 C         3.228982         0.281487        -1.351707
 O         3.836754        -0.883193        -1.682086
 C         1.725961         0.480921        -0.704386
 C         2.946735         0.721696         0.143312
 O         3.500145        -0.206204         1.077746
 C         2.835151         2.259174        -0.020758
 H         0.212685         3.241247        -0.923350
 H         1.408803         3.754797        -2.089650
 H         0.082044         2.438793        -2.386710
 H         2.483755         0.959628        -3.212153
 H         3.941620         1.797533        -2.706048
 H         4.278829        -1.422323        -0.971984
 H         1.134120        -0.302263        -0.967055
 H         2.724587        -0.341346         1.705499
 H         2.378115         2.641308         0.871283
 H         3.815887         2.763843        -0.208450
