19
Iteration:   738charge 0 multiplicity 1
 C         0.838369         2.878691        -1.818065
 C         1.948546         1.972583        -1.225200
 C         2.999954         1.499867        -2.336681
 C         3.185300         0.224468        -1.366199
 O         3.853366        -0.971565        -1.736893
 C         1.788758         0.322444        -0.792994
 C         2.968143         0.685801         0.122372
 O         3.508874        -0.050411         1.140440
 C         2.821986         2.239933         0.017363
 H        -0.005002         3.036234        -1.166941
 H         1.132522         3.837810        -2.156517
 H         0.358065         2.443226        -2.711086
 H         2.579953         1.203741        -3.293699
 H         3.915176         2.037992        -2.652180
 H         4.011647        -1.491249        -0.965479
 H         1.052780        -0.329242        -0.670021
 H         2.944950         0.013251         1.976414
 H         2.182520         2.741650         0.796829
 H         3.665749         2.898151        -0.205293
