19
Iteration:   513
 C         0.852035         2.902186        -1.718490
 C         1.932974         1.964296        -1.333733
 C         2.987482         1.398978        -2.396801
 C         3.134706         0.217216        -1.387961
 O         3.878682        -0.901499        -1.585849
 C         1.805273         0.369177        -0.839423
 C         2.871476         0.693049         0.120832
 O         3.565244        -0.121692         1.076484
 C         2.815180         2.270271         0.015479
 H         0.213867         3.147428        -0.847340
 H         1.197753         3.959130        -1.974374
 H         0.087271         2.567150        -2.474453
 H         2.494891         1.284101        -3.357080
 H         3.835968         2.106890        -2.628845
 H         4.337990        -1.135578        -0.791459
 H         1.088314        -0.421406        -0.909191
 H         2.932463        -0.489006         1.679039
 H         2.344778         2.816791         0.787472
 H         3.818799         2.678007        -0.237618
