19
Iteration:  4566charge 0 multiplicity 1
 C         0.792629         2.853295        -1.731783
 C         2.045200         2.003202        -1.412529
 C         3.113200         1.387555        -2.320678
 C         3.226179         0.207577        -1.344345
 O         3.923754        -0.886227        -1.703248
 C         1.748641         0.486767        -0.802208
 C         2.914697         0.761768         0.037060
 O         3.315886        -0.253463         1.187890
 C         2.787673         2.270889         0.027393
 H         0.072944         2.821247        -0.914712
 H         1.037659         3.855590        -2.141264
 H         0.276055         2.233684        -2.521708
 H         2.607916         0.915684        -3.181355
 H         3.908467         2.061045        -2.508707
 H         4.528120        -1.093383        -0.907272
 H         0.814416        -0.096531        -0.768140
 H         3.904945         0.325211         1.748327
 H         2.056528         2.625642         0.728610
 H         3.657854         2.857070        -0.109179
