19
Iteration:  2878charge 0 multiplicity 1
 C         0.940499         2.898750        -1.753019
 C         1.951786         1.932788        -1.174317
 C         3.038088         1.451096        -2.265049
 C         3.113625         0.185108        -1.471597
 O         3.682144        -1.025971        -1.715092
 C         1.708611         0.406364        -0.825466
 C         3.012755         0.685222         0.032151
 O         3.483345         0.138683         1.154597
 C         2.861040         2.140903         0.114644
 H         0.190754         3.287540        -1.040720
 H         1.369032         3.771753        -2.248105
 H         0.453488         2.370412        -2.647052
 H         2.602933         1.235966        -3.316236
 H         4.032380         1.981174        -2.347055
 H         4.668170        -1.077136        -1.534138
 H         0.970001        -0.339568        -0.856468
 H         3.818082        -0.732065         0.989791
 H         2.109267         2.553265         0.858055
 H         3.849474         2.674587        -0.153072
