19
Iteration:  4464charge 0 multiplicity 1
 C         0.891457         2.818845        -1.917383
 C         1.900433         1.900177        -1.207364
 C         3.075653         1.542530        -2.310458
 C         3.130897         0.291440        -1.450116
 O         3.872493        -0.923212        -1.442958
 C         1.783893         0.423363        -0.820168
 C         2.985588         0.642876         0.009677
 O         3.461654        -0.021605         1.115973
 C         2.715977         2.166442         0.079190
 H         0.147958         3.093288        -1.108695
 H         1.215967         3.839268        -2.049193
 H         0.581855         2.326000        -2.843530
 H         2.907114         1.369830        -3.358239
 H         3.944435         2.172435        -2.181200
 H         3.977269        -1.233490        -2.327446
 H         0.952523        -0.338645        -0.662205
 H         3.858512        -0.862099         0.930931
 H         2.010315         2.345923         0.835923
 H         3.488606         2.908469         0.026687
