19
Iteration:  4596charge 0 multiplicity 1
 C         0.892404         2.847618        -1.732235
 C         2.002021         1.914918        -1.330230
 C         3.054821         1.427903        -2.274491
 C         3.153111         0.235690        -1.423619
 O         3.905760        -0.899671        -1.605151
 C         1.758298         0.406159        -0.857416
 C         2.870812         0.749325         0.024078
 O         3.443298        -0.119078         1.056218
 C         2.791726         2.197897         0.079374
 H         0.088309         3.128987        -0.957029
 H         1.227304         3.719510        -2.302856
 H         0.260737         2.302085        -2.507255
 H         2.725223         1.213925        -3.295032
 H         3.928706         2.233709        -2.333585
 H         4.221177        -1.084469        -0.725269
 H         0.942139        -0.247011        -0.883682
 H         2.984828         0.190260         1.869715
 H         2.257106         2.711260         0.860760
 H         3.744043         2.699692        -0.156099
