19
Iteration:  3911
 C         0.915764         2.899874        -1.705382
 C         1.963636         1.890393        -1.348845
 C         2.963643         1.418494        -2.385537
 C         3.187839         0.279930        -1.429082
 O         3.847201        -0.946931        -1.563176
 C         1.786429         0.395580        -0.757028
 C         3.036053         0.774630         0.039818
 O         3.383685        -0.105696         1.116700
 C         2.728689         2.210610        -0.041731
 H         0.130170         3.086887        -0.981833
 H         1.627897         3.729252        -1.831989
 H         0.347728         2.723192        -2.611174
 H         2.450595         0.984635        -3.338215
 H         3.831683         2.094311        -2.426428
 H         4.013331        -1.140798        -0.615095
 H         1.098064        -0.409794        -0.711654
 H         4.345961        -0.020698         1.042206
 H         1.930057         2.597600         0.692069
 H         3.778493         2.688680         0.074916
