19
Iteration:  4670
 C         0.863038         2.869947        -1.843826
 C         1.910564         1.932343        -1.230344
 C         3.063110         1.522370        -2.282263
 C         3.197842         0.212592        -1.313364
 O         3.824532        -1.053071        -1.637102
 C         1.766692         0.361948        -0.901545
 C         2.916560         0.754310         0.076438
 O         3.532020        -0.030196         1.086011
 C         2.746568         2.176226         0.099014
 H        -0.079899         3.012963        -1.267319
 H         1.321750         3.865718        -1.875341
 H         0.649297         2.673143        -2.872277
 H         2.719596         1.288858        -3.260766
 H         3.961652         2.101197        -2.536232
 H         4.760874        -0.989707        -1.734346
 H         0.880012        -0.112792        -1.120714
 H         2.943281        -0.074627         1.839389
 H         2.117829         2.689233         0.899618
 H         3.687153         2.839582         0.118086
