19
Iteration:  4287
 C         0.928633         2.818190        -1.783989
 C         1.967904         1.898266        -1.302986
 C         3.086653         1.541087        -2.309705
 C         3.182062         0.252428        -1.397744
 O         3.872821        -0.924466        -1.533445
 C         1.790740         0.443063        -0.894450
 C         2.968870         0.712763         0.109687
 O         3.462228        -0.030192         1.120001
 C         2.690548         2.188110         0.012345
 H         0.313077         2.950642        -0.869417
 H         1.377974         3.754886        -2.175761
 H         0.226935         2.369495        -2.462491
 H         2.694736         1.034604        -3.304374
 H         3.756010         2.401881        -2.502824
 H         3.408793        -1.654965        -1.934245
 H         1.115473        -0.432650        -0.881182
 H         2.897536        -0.728774         1.396030
 H         2.033168         2.555345         0.777689
 H         3.679391         2.713615        -0.001153
