19
Iteration:  2528
 C         0.832185         2.869604        -1.707812
 C         1.960171         2.031048        -1.302835
 C         3.031022         1.453891        -2.351164
 C         3.071042         0.192414        -1.463715
 O         3.814292        -1.037332        -1.614811
 C         1.768959         0.400749        -0.782387
 C         3.037907         0.769479         0.064000
 O         3.502554        -0.112983         1.040263
 C         2.854047         2.276136         0.049520
 H         0.337758         3.259139        -0.809246
 H         1.345015         3.729193        -2.231740
 H         0.141522         2.444475        -2.494170
 H         2.545247         1.367274        -3.306086
 H         4.014600         1.859362        -2.565808
 H         4.345831        -1.031371        -0.808592
 H         1.037646        -0.293822        -0.526567
 H         2.801759        -0.195482         1.755891
 H         2.082460         2.476614         0.757081
 H         3.856100         2.793170        -0.034559
