19
Iteration:  4004
 C         0.789668         2.906759        -1.860081
 C         1.891186         1.921720        -1.420921
 C         3.074726         1.463215        -2.285189
 C         3.315440         0.214989        -1.380380
 O         3.726169        -1.036447        -1.673704
 C         1.811440         0.402925        -0.700617
 C         3.034084         0.743120         0.049165
 O         3.404376        -0.096823         1.154241
 C         2.782079         2.266326         0.121776
 H        -0.017346         3.182607        -1.091537
 H         1.396659         3.798651        -2.159540
 H         0.228128         2.565576        -2.774564
 H         2.627091         1.177487        -3.189056
 H         3.978568         2.076562        -2.505376
 H         4.520807        -1.228551        -1.174344
 H         0.929525        -0.177795        -0.577268
 H         4.343913         0.210955         1.117394
 H         2.128419         2.521327         0.892881
 H         3.621920         2.896143         0.107006
