19
Iteration:  2149
 C         0.903096         2.931154        -1.648298
 C         2.007240         1.883038        -1.257459
 C         3.005056         1.436282        -2.377536
 C         3.135649         0.188535        -1.526093
 O         3.891518        -0.992227        -1.611784
 C         1.656773         0.432507        -0.791631
 C         2.999666         0.654348         0.014884
 O         3.501600         0.002564         1.064787
 C         2.785655         2.186531         0.038332
 H         0.081581         2.917194        -0.871548
 H         1.467358         3.923265        -1.733640
 H         0.414494         2.670488        -2.618042
 H         2.461663         1.415043        -3.339965
 H         3.822232         2.176470        -2.481231
 H         4.323050        -1.142972        -0.763134
 H         0.839934        -0.164196        -0.644932
 H         2.856556         0.219360         1.807278
 H         2.080353         2.465763         0.746759
 H         3.691178         2.725611        -0.166239
