19
Iteration:  1770
 C         0.867971         2.805926        -1.749827
 C         2.010066         1.988378        -1.369053
 C         3.116549         1.527949        -2.271680
 C         3.158650         0.226001        -1.459494
 O         3.643007        -1.064764        -1.605988
 C         1.709847         0.492661        -0.903296
 C         3.003381         0.663796         0.045050
 O         3.668725         0.015475         1.060173
 C         2.734506         2.139649         0.185791
 H        -0.059485         2.795942        -1.212844
 H         1.000747         3.864491        -1.883303
 H         0.473861         2.427364        -2.680099
 H         2.830629         1.363094        -3.330082
 H         4.033375         2.080828        -2.466039
 H         4.331152        -1.118259        -0.865539
 H         0.686800        -0.089344        -1.083478
 H         3.227828         0.258305         1.912219
 H         1.927345         2.303784         0.821762
 H         3.593034         2.693780         0.402546
