19
Iteration:  2809charge 0 multiplicity 1
 C         0.849910         2.867557        -1.628660
 C         1.983034         1.970275        -1.280933
 C         3.000047         1.455295        -2.390903
 C         3.180115         0.215884        -1.464807
 O         3.727525        -1.062458        -1.551530
 C         1.813063         0.472468        -0.865509
 C         3.105115         0.719624        -0.016515
 O         3.436653        -0.012714         1.127136
 C         2.860424         2.191031        -0.005103
 H         0.052787         2.836532        -0.876953
 H         1.085353         3.991380        -1.892988
 H         0.502655         2.465556        -2.590296
 H         2.372784         1.416162        -3.342458
 H         3.813012         2.162260        -2.511805
 H         4.636262        -0.886730        -1.214078
 H         0.959631        -0.140099        -0.368483
 H         2.624282        -0.505252         1.330697
 H         2.145817         2.377365         0.793604
 H         3.922053         2.704368        -0.091299
