19
Iteration:   442charge 0 multiplicity 1
 C         0.855295         2.807813        -1.839463
 C         1.960376         1.905009        -1.287508
 C         3.093591         1.529610        -2.220172
 C         3.147101         0.251624        -1.323108
 O         3.729563        -0.953604        -1.753048
 C         1.694083         0.419635        -0.808798
 C         2.999884         0.685444         0.079055
 O         3.593097        -0.059936         1.090032
 C         2.778945         2.170825         0.057211
 H         0.028118         2.963354        -1.110394
 H         1.285767         3.816671        -1.932669
 H         0.434004         2.482977        -2.796179
 H         2.814812         1.164903        -3.203776
 H         3.856372         2.198084        -2.333341
 H         4.356828        -1.166939        -1.070176
 H         0.871429        -0.308468        -0.827698
 H         3.409079         0.331179         1.934375
 H         2.130163         2.555519         0.857903
 H         3.539579         2.861804        -0.184126
