19
Iteration:  4212
 C         0.828661         2.869566        -1.814476
 C         1.949614         1.936043        -1.348793
 C         3.064392         1.436797        -2.332169
 C         3.199722         0.251725        -1.361525
 O         3.895246        -0.947402        -1.552310
 C         1.766798         0.382920        -0.798354
 C         2.896630         0.728139         0.111128
 O         3.376323        -0.100580         1.122572
 C         2.841800         2.227794         0.065662
 H        -0.058856         3.081340        -1.206980
 H         1.404042         3.745841        -1.875362
 H         0.537224         2.515295        -2.781397
 H         2.520900         1.288102        -3.274470
 H         4.051286         1.815995        -2.411980
 H         3.527031        -1.104765        -2.450998
 H         0.973115        -0.387027        -0.970849
 H         4.225752         0.322231         1.453840
 H         2.289573         2.622798         0.928913
 H         3.848497         2.794963        -0.162185
