19
Iteration:  2716
 C         0.924968         2.958101        -1.822854
 C         1.967001         1.892925        -1.286447
 C         2.991763         1.374594        -2.239634
 C         3.202664         0.253441        -1.332326
 O         3.739187        -0.922156        -1.762060
 C         1.733736         0.362337        -0.727557
 C         2.999823         0.740180         0.063564
 O         3.596083        -0.030041         1.085374
 C         2.775746         2.231489         0.049371
 H         0.285426         3.347618        -0.996751
 H         1.408009         3.750274        -2.326182
 H         0.317616         2.400535        -2.607440
 H         2.389871         1.039440        -3.096304
 H         3.930326         1.939539        -2.654905
 H         3.642337        -1.604963        -1.061754
 H         0.969715        -0.353704        -0.961513
 H         2.932246        -0.118616         1.807305
 H         2.055737         2.347973         0.880664
 H         3.803169         2.663554         0.008901
