19
Iteration:  3775charge 0 multiplicity 1
 C         0.889467         2.877086        -1.684623
 C         1.939453         1.894156        -1.317980
 C         3.035148         1.368315        -2.283763
 C         3.160255         0.241318        -1.326243
 O         3.952715        -0.898886        -1.632512
 C         1.679038         0.488602        -0.783276
 C         2.945293         0.705740         0.062311
 O         3.361387        -0.110336         1.075663
 C         2.855074         2.183375        -0.101488
 H         0.167470         3.189497        -0.899317
 H         1.401661         3.764337        -1.977659
 H         0.187245         2.572503        -2.460646
 H         2.534412         1.169907        -3.208530
 H         3.969717         1.997170        -2.391807
 H         4.068212        -1.529689        -0.853182
 H         0.818891        -0.143785        -0.878622
 H         4.216044         0.340209         1.302779
 H         2.158909         2.727844         0.592633
 H         3.643834         2.878009        -0.477385
