19
Iteration:   761charge 0 multiplicity 1
 C         0.949145         2.830748        -1.849910
 C         1.851883         1.871589        -1.268210
 C         2.970636         1.492330        -2.203452
 C         3.181976         0.219955        -1.392627
 O         3.796713        -0.962309        -1.671021
 C         1.727925         0.440471        -0.780519
 C         3.050100         0.692177        -0.028700
 O         3.556661         0.004387         1.091880
 C         2.765401         2.153581         0.036518
 H         0.134228         3.076558        -1.209735
 H         1.426802         3.728530        -2.007874
 H         0.436740         2.605383        -2.794940
 H         2.597294         1.411625        -3.252929
 H         3.898675         2.053376        -2.341919
 H         4.479026        -1.188487        -0.951783
 H         0.859305        -0.224010        -0.657779
 H         3.082724         0.301903         1.856417
 H         2.133093         2.178075         1.007172
 H         3.574537         2.896800         0.073190
