19
Iteration:  2075charge 0 multiplicity 1
 C         0.881452         2.793401        -1.887445
 C         1.968673         1.964935        -1.218045
 C         3.000981         1.519953        -2.232578
 C         3.112878         0.252986        -1.461546
 O         3.779858        -1.033821        -1.664472
 C         1.732922         0.484153        -0.762735
 C         3.012628         0.753518         0.036364
 O         3.560847        -0.083404         0.974475
 C         2.819082         2.233585         0.161355
 H         0.020409         2.964420        -1.221357
 H         1.340423         3.728539        -2.230062
 H         0.503759         2.082919        -2.578849
 H         2.555760         1.202291        -3.244832
 H         3.934406         2.131938        -2.342318
 H         4.305013        -1.122984        -0.798588
 H         0.944895        -0.075960        -0.498749
 H         2.859609        -0.106677         1.636474
 H         2.170845         2.215832         1.149805
 H         3.812442         2.753245         0.150998
