19
Iteration:   297
 C         0.757294         2.969276        -1.773426
 C         1.883362         1.927003        -1.282586
 C         3.125364         1.503215        -2.229218
 C         3.236595         0.212726        -1.354417
 O         3.812055        -1.031628        -1.628967
 C         1.758704         0.336801        -0.764686
 C         2.968898         0.728031         0.059411
 O         3.565645        -0.130192         0.940278
 C         2.728749         2.293932        -0.019509
 H         0.071754         3.224419        -0.954661
 H         1.361620         3.876264        -2.086070
 H         0.195618         2.615413        -2.653700
 H         2.799795         1.272988        -3.243855
 H         3.995528         2.067361        -2.084498
 H         4.279401        -1.330882        -0.859587
 H         0.884327        -0.517299        -0.538194
 H         3.551640         0.167878         1.908513
 H         1.994460         2.638109         0.807772
 H         3.556129         2.843125        -0.296351
