19
Iteration:  3538charge 0 multiplicity 1
 C         0.850647         2.773126        -1.824659
 C         1.935918         1.946864        -1.264046
 C         3.083581         1.500677        -2.323356
 C         3.176374         0.233102        -1.453713
 O         3.738625        -1.040852        -1.673754
 C         1.800773         0.484282        -0.782933
 C         3.031769         0.684568         0.018353
 O         3.472834        -0.089344         1.105287
 C         2.767882         2.242477         0.116189
 H         0.092132         3.055085        -1.070108
 H         1.451578         3.705864        -1.825255
 H         0.516171         2.470039        -2.817928
 H         2.633858         1.424647        -3.319538
 H         3.936310         2.133929        -2.439312
 H         3.952146        -1.164013        -0.737828
 H         0.866678        -0.142167        -0.553526
 H         3.974459         0.550610         1.632778
 H         2.008972         2.652476         0.757496
 H         3.656826         2.930666         0.248528
