19
Iteration:  4569
 C         0.791609         2.836005        -1.713634
 C         2.067236         1.983895        -1.426529
 C         3.127225         1.422817        -2.333179
 C         3.211793         0.228362        -1.318967
 O         3.925242        -0.879870        -1.696635
 C         1.712143         0.477655        -0.799024
 C         2.920484         0.755961         0.041602
 O         3.330022        -0.267004         1.195722
 C         2.791190         2.262287        -0.002695
 H         0.040545         2.878833        -0.992112
 H         1.064808         3.784612        -2.187496
 H         0.252701         2.323042        -2.495551
 H         2.576254         0.960205        -3.183094
 H         3.999482         1.969718        -2.639684
 H         4.495968        -1.046803        -0.953727
 H         0.696620        -0.076361        -0.783533
 H         3.843882         0.343060         1.795946
 H         2.028237         2.591687         0.802991
 H         3.696339         2.939800        -0.104840
