19
Iteration:  1666charge 0 multiplicity 1
 C         0.845923         2.884321        -1.598181
 C         1.923785         1.903806        -1.281419
 C         3.051394         1.395012        -2.357576
 C         3.279455         0.261086        -1.312411
 O         3.820454        -0.959578        -1.710382
 C         1.765135         0.418943        -0.831615
 C         2.985665         0.756723         0.057988
 O         3.441374        -0.047520         1.161017
 C         2.810624         2.215479        -0.135092
 H         0.319936         3.281166        -0.668158
 H         1.274112         3.829475        -2.047792
 H         0.124741         2.673262        -2.463462
 H         2.538230         0.914530        -3.189913
 H         3.768032         2.155219        -2.530436
 H         4.139904        -1.275143        -0.866102
 H         0.935591        -0.422353        -0.847206
 H         2.965751        -0.858209         1.101742
 H         2.300201         2.861759         0.678203
 H         3.743922         2.857672        -0.260416
