19
Iteration:  4535charge 0 multiplicity 1
 C         0.887626         2.799064        -1.738548
 C         1.930598         1.897552        -1.295724
 C         3.108629         1.523496        -2.266637
 C         3.222963         0.225464        -1.481118
 O         3.891512        -0.936145        -1.647211
 C         1.800803         0.382946        -0.817202
 C         3.013359         0.704596        -0.037261
 O         3.277922        -0.027222         1.196734
 C         2.728748         2.224000         0.029485
 H         0.183389         2.999562        -1.030140
 H         1.337492         3.812667        -1.865046
 H         0.715126         2.321612        -2.690762
 H         2.694372         1.269077        -3.325175
 H         3.751647         2.376735        -2.431185
 H         3.851767        -1.492810        -0.887016
 H         0.907301        -0.287930        -0.651267
 H         4.209049        -0.222860         1.194814
 H         2.017812         2.479616         0.908730
 H         3.542706         3.000013        -0.114296
