19
Iteration:  4461charge 0 multiplicity 1
 C         0.881049         2.822510        -1.907192
 C         1.880803         1.927442        -1.215285
 C         3.048128         1.538235        -2.323194
 C         3.163100         0.306426        -1.449633
 O         3.878193        -0.933848        -1.430106
 C         1.773382         0.414437        -0.830858
 C         2.990055         0.661330         0.023035
 O         3.454684        -0.019696         1.118759
 C         2.739752         2.129883         0.075273
 H         0.081781         3.044731        -1.148875
 H         1.278560         3.847971        -2.117085
 H         0.566395         2.310288        -2.802916
 H         2.891366         1.511678        -3.378828
 H         4.040444         2.061999        -2.167116
 H         4.021302        -1.239778        -2.346755
 H         0.994256        -0.345372        -0.680841
 H         3.782123        -0.943730         0.883390
 H         2.042735         2.414014         0.906058
 H         3.496622         2.923839         0.001634
