19
Iteration:  1581charge 0 multiplicity 1
 C         0.857449         2.912736        -1.897496
 C         1.892373         1.918389        -1.255332
 C         3.065013         1.504661        -2.200356
 C         3.145577         0.259529        -1.428456
 O         3.725844        -1.032729        -1.691976
 C         1.782843         0.401025        -0.714740
 C         3.065418         0.716558         0.043499
 O         3.588937        -0.169984         1.095173
 C         2.663749         2.251698         0.010518
 H         0.082665         3.175320        -1.155206
 H         1.363005         3.892762        -1.964500
 H         0.517329         2.580690        -2.851045
 H         2.852063         1.328209        -3.354419
 H         3.890284         2.296959        -2.172415
 H         4.158327        -1.324399        -0.833688
 H         0.878119        -0.299805        -0.513941
 H         4.179587         0.468618         1.571869
 H         2.087692         2.514839         0.891662
 H         3.519600         2.949378        -0.148832
