19
Iteration:  3727charge 0 multiplicity 1
 C         1.009457         2.899585        -1.749872
 C         1.973591         1.906566        -1.311282
 C         2.993785         1.394555        -2.322338
 C         3.217268         0.285920        -1.369603
 O         3.837626        -1.010877        -1.654588
 C         1.713256         0.426177        -0.746455
 C         2.984858         0.705683         0.043328
 O         3.460479        -0.066457         1.055350
 C         2.625822         2.253063         0.021061
 H         0.009526         2.974710        -1.258817
 H         1.510100         3.970414        -1.725601
 H         0.561813         2.671145        -2.755955
 H         2.553149         0.781187        -3.177766
 H         3.719776         2.167140        -2.582896
 H         4.079245        -1.134357        -0.695452
 H         0.844236        -0.251316        -0.583130
 H         4.385288         0.184104         1.339193
 H         1.970956         2.377910         0.896434
 H         3.615733         2.960206        -0.033716
