19
Iteration:  2014
 C         0.898847         2.970093        -1.559641
 C         1.902090         1.929709        -1.316764
 C         3.057545         1.395169        -2.285555
 C         3.200090         0.156197        -1.431780
 O         3.974606        -1.034988        -1.682965
 C         1.730952         0.387529        -0.826572
 C         2.986198         0.770669        -0.027962
 O         3.442303        -0.034827         1.054818
 C         2.729146         2.226400        -0.045290
 H         0.399008         3.267475        -0.603977
 H         1.185601         3.863715        -2.143211
 H         0.029141         2.662880        -2.275727
 H         2.552248         1.128952        -3.193665
 H         3.926783         2.059939        -2.467431
 H         4.005657        -1.246883        -0.728130
 H         0.783696        -0.159948        -0.560776
 H         2.826544         0.035334         1.822211
 H         2.106163         2.485236         0.886701
 H         3.706091         2.911484        -0.158872
