19
Iteration:   782
 C         0.903147         2.916544        -1.757579
 C         1.972572         1.962047        -1.335729
 C         3.129339         1.373284        -2.277661
 C         3.094639         0.184284        -1.422135
 O         3.797072        -0.987600        -1.671266
 C         1.759506         0.347653        -0.795863
 C         2.860939         0.762642         0.125603
 O         3.688302        -0.047659         1.049297
 C         2.597304         2.260111         0.066692
 H         0.046382         3.125828        -1.164749
 H         1.233212         3.824691        -2.151932
 H         0.457435         2.501631        -2.674587
 H         2.727302         1.161747        -3.289995
 H         4.020685         2.019137        -2.406159
 H         4.611403        -0.944049        -1.214989
 H         0.894422        -0.309353        -0.636471
 H         3.304055        -0.059404         1.979182
 H         1.883611         2.675464         0.781737
 H         3.488992         2.811950         0.102450
