19
Iteration:    96
 C         0.853833         2.801679        -1.801203
 C         1.955243         2.025302        -1.176070
 C         3.019214         1.421438        -2.326840
 C         3.126653         0.214284        -1.488354
 O         3.777664        -0.974628        -1.687189
 C         1.754236         0.485696        -0.756592
 C         3.072770         0.619147        -0.028780
 O         3.539582         0.044696         1.150683
 C         2.780474         2.202091         0.109561
 H        -0.147809         3.017085        -1.319417
 H         1.231871         3.809182        -2.075158
 H         0.681088         2.201694        -2.731623
 H         2.403710         1.352535        -3.205469
 H         3.997122         1.952871        -2.547217
 H         4.526323        -0.906687        -0.991295
 H         1.036654        -0.202928        -0.640636
 H         2.990667        -0.709721         1.367843
 H         2.032041         2.160722         1.008847
 H         3.665408         2.901025        -0.044701
