19
Iteration:  1606
 C         0.872664         2.840177        -1.850857
 C         1.977667         1.932908        -1.295952
 C         3.066339         1.418284        -2.281108
 C         3.134530         0.334098        -1.299323
 O         3.663200        -0.917445        -1.653296
 C         1.708627         0.427072        -0.851373
 C         2.915064         0.713232         0.139688
 O         3.674441        -0.143198         1.039652
 C         2.771107         2.186044         0.065181
 H         0.012240         2.835293        -1.165422
 H         1.197361         3.911040        -1.941991
 H         0.557802         2.404938        -2.808244
 H         2.735530         1.140398        -3.308664
 H         3.850097         2.212218        -2.365735
 H         4.410846        -1.160768        -1.098279
 H         0.976111        -0.310696        -1.055990
 H         3.800828         0.429389         1.802263
 H         2.112952         2.563964         0.874642
 H         3.826925         2.645583        -0.013441
