19
Iteration:  1455charge 0 multiplicity 1
 C         0.843039         2.854584        -1.807349
 C         1.993950         1.917482        -1.341425
 C         3.049559         1.458533        -2.290230
 C         3.207945         0.246063        -1.326831
 O         3.707623        -1.011014        -1.619043
 C         1.746176         0.414755        -0.790854
 C         2.940721         0.698095         0.143363
 O         3.570354         0.014455         1.121864
 C         2.762784         2.263637         0.051200
 H         0.019636         2.829095        -1.123376
 H         1.236303         3.857882        -2.027362
 H         0.383195         2.536473        -2.791297
 H         2.530769         1.012714        -3.170868
 H         3.941307         2.103802        -2.430943
 H         4.000344        -0.997611        -2.538466
 H         0.967955        -0.474623        -0.804177
 H         4.255905        -0.542017         0.705596
 H         2.227551         2.560618         0.939265
 H         3.694897         2.751896         0.173640
