19
Iteration:  4994charge 0 multiplicity 1
 C         0.855469         2.867689        -1.717604
 C         1.915079         1.881223        -1.327703
 C         3.117044         1.485867        -2.266260
 C         3.176676         0.226843        -1.393303
 O         3.879367        -1.072438        -1.743818
 C         1.830368         0.407527        -0.803961
 C         2.958453         0.743563         0.105050
 O         3.407097        -0.001801         1.154775
 C         2.652358         2.242928        -0.022614
 H         0.104859         2.956521        -0.936948
 H         1.167069         3.896872        -2.010303
 H         0.266728         2.664683        -2.608689
 H         2.798209         1.226568        -3.272604
 H         3.901188         2.216901        -2.364983
 H         4.230539        -1.435279        -0.876525
 H         1.101240        -0.341045        -0.636203
 H         4.389507        -0.031292         1.154003
 H         2.038955         2.720408         0.786938
 H         3.586338         2.967248        -0.078663
