19
Iteration:  1825charge 0 multiplicity 1
 C         0.878720         2.914790        -1.747237
 C         1.929227         1.965330        -1.336958
 C         2.986158         1.371749        -2.393311
 C         3.168214         0.297714        -1.355118
 O         3.882110        -0.825528        -1.673631
 C         1.743708         0.467162        -0.782012
 C         2.954177         0.656398         0.142094
 O         3.535975        -0.205119         1.115625
 C         2.801822         2.231122        -0.001327
 H         0.181523         3.054406        -0.924790
 H         1.542772         3.733433        -2.062920
 H         0.423565         2.614068        -2.723666
 H         2.375454         0.770222        -3.123184
 H         3.797624         1.932699        -2.814627
 H         4.021270        -1.349073        -0.847016
 H         0.812806        -0.229609        -0.541047
 H         2.866298        -0.466090         1.731209
 H         2.268244         2.752784         0.765353
 H         3.723237         2.757386        -0.230252
