19
Iteration:   907charge 0 multiplicity 1
 C         0.907605         2.915402        -1.787745
 C         1.894334         1.934707        -1.265857
 C         2.976575         1.523033        -2.231407
 C         3.157954         0.217762        -1.395153
 O         3.951793        -1.030000        -1.678658
 C         1.751955         0.339285        -0.796617
 C         2.949590         0.670825         0.004389
 O         3.515044         0.005866         1.091608
 C         2.768498         2.194755        -0.016329
 H         0.167969         3.246122        -1.052643
 H         1.267977         3.905375        -2.151660
 H         0.349371         2.427553        -2.546502
 H         2.385825         1.078472        -3.123027
 H         3.906544         2.137748        -2.514632
 H         3.987134        -1.451604        -0.840741
 H         0.887972        -0.170392        -0.501988
 H         3.002041         0.399965         1.854627
 H         2.166597         2.517845         0.878359
 H         3.779004         2.668605        -0.134766
