19
Iteration:   606
 C         0.857724         2.873410        -1.866360
 C         1.968269         1.925133        -1.252193
 C         3.060849         1.444060        -2.233891
 C         3.077081         0.234445        -1.393392
 O         3.752242        -0.969436        -1.745742
 C         1.756033         0.332833        -0.808019
 C         3.042651         0.725518         0.074599
 O         3.619313         0.014946         1.133845
 C         2.741474         2.206625         0.042815
 H         0.001828         3.074570        -1.219194
 H         1.290998         3.837241        -2.003281
 H         0.480777         2.485443        -2.798632
 H         2.686147         1.499563        -3.310153
 H         3.962650         2.271376        -2.208529
 H         4.288728        -1.435217        -1.046995
 H         0.916150        -0.542802        -0.766692
 H         2.924667        -0.065258         1.847878
 H         2.118656         2.245651         1.034986
 H         3.579632         2.924080         0.109118
