19
Iteration:  1669
 C         0.874101         2.871121        -1.590124
 C         1.931350         1.946164        -1.281904
 C         3.020753         1.384799        -2.364260
 C         3.301382         0.266831        -1.328271
 O         3.832831        -0.955630        -1.721760
 C         1.728196         0.411030        -0.818635
 C         2.954452         0.724067         0.079712
 O         3.445183        -0.033526         1.164523
 C         2.809446         2.230387        -0.116364
 H         0.343360         3.301650        -0.743807
 H         1.216327         3.807271        -2.043617
 H         0.261402         2.555663        -2.387221
 H         2.594528         0.815974        -3.277644
 H         3.731852         2.186501        -2.601373
 H         4.163761        -1.281733        -0.866632
 H         1.028080        -0.390553        -0.899343
 H         2.940131        -0.870155         1.067254
 H         2.356694         2.887621         0.569366
 H         3.721420         2.731916        -0.243870
