19
Iteration:  2027charge 0 multiplicity 1
 C         0.841422         2.963387        -1.629467
 C         1.954420         1.851363        -1.337367
 C         3.099491         1.378851        -2.329342
 C         3.168403         0.217450        -1.354611
 O         3.884349        -0.903853        -1.683569
 C         1.770407         0.410414        -0.754072
 C         2.936055         0.717456         0.083424
 O         3.461735        -0.093223         1.019945
 C         2.776100         2.249292        -0.077374
 H         0.517277         3.366148        -0.618687
 H         1.382491         3.804278        -2.117280
 H        -0.081036         2.493817        -2.117550
 H         2.807640         1.108427        -3.347813
 H         4.055013         2.028839        -2.386265
 H         4.136117        -1.517977        -0.974001
 H         0.881720        -0.368277        -0.485142
 H         2.795025        -0.176657         1.733779
 H         1.968252         2.709528         0.580388
 H         3.688976         2.972108        -0.256280
