19
Iteration:  4754
 C         0.840463         2.850246        -1.772425
 C         1.921467         1.891246        -1.331614
 C         3.075785         1.498122        -2.342831
 C         3.132719         0.269772        -1.433034
 O         3.942569        -0.903553        -1.579835
 C         1.736984         0.439655        -0.836435
 C         3.004079         0.732881         0.024244
 O         3.486861        -0.050515         1.176891
 C         2.790102         2.155082         0.016406
 H         0.199954         3.069338        -0.895896
 H         1.442025         3.741766        -2.213190
 H         0.060474         2.438316        -2.460785
 H         2.661341         1.272141        -3.413006
 H         4.078052         2.011962        -2.191137
 H         3.431901        -1.716582        -1.266987
 H         0.984919        -0.245189        -0.671987
 H         2.611230        -0.492201         1.390722
 H         2.192971         2.393136         0.914669
 H         3.698249         2.683466        -0.019796
