19
Iteration:   637
 C         0.914516         2.842142        -1.792561
 C         1.966298         1.905119        -1.348787
 C         3.079501         1.431588        -2.314170
 C         3.173891         0.181796        -1.319885
 O         3.796620        -1.000874        -1.683382
 C         1.714856         0.424701        -0.739866
 C         2.916079         0.766948         0.111758
 O         3.617601        -0.037527         0.969661
 C         2.683747         2.237954         0.078971
 H         0.123156         3.121684        -1.068189
 H         1.306586         3.919825        -1.924036
 H         0.364739         2.690779        -2.715353
 H         2.589876         1.191871        -3.271782
 H         4.019419         2.098127        -2.219967
 H         4.643454        -0.969685        -1.207094
 H         0.703371        -0.196461        -0.632105
 H         3.118168        -0.084103         1.778156
 H         1.870386         2.325637         0.878469
 H         3.491504         2.954271         0.303286
