19
Iteration:   600
 C         0.829551         2.866261        -1.868286
 C         1.956086         1.918009        -1.283440
 C         3.077760         1.482154        -2.260416
 C         3.126187         0.230647        -1.387223
 O         3.727900        -0.927137        -1.742535
 C         1.758601         0.325472        -0.772547
 C         3.020495         0.696792         0.071857
 O         3.606202         0.015977         1.139837
 C         2.780042         2.175501         0.081122
 H         0.020096         2.969157        -1.118187
 H         1.420546         3.825914        -2.049896
 H         0.459272         2.503992        -2.871560
 H         2.760576         1.291067        -3.273743
 H         3.720076         2.261156        -2.300828
 H         4.119077        -1.473641        -0.992538
 H         1.079376        -0.425632        -0.877599
 H         2.961083        -0.082622         1.837289
 H         2.117457         2.456102         0.851365
 H         3.655212         2.843655         0.079543
