19
Iteration:  3253charge 0 multiplicity 1
 C         0.875851         2.843179        -1.754920
 C         1.914379         1.935860        -1.244453
 C         3.138521         1.459565        -2.259655
 C         3.248415         0.260119        -1.465534
 O         3.768954        -0.971319        -1.598758
 C         1.661885         0.416144        -0.752692
 C         2.971065         0.670519        -0.066496
 O         3.496918        -0.104073         1.018974
 C         2.783846         2.233228         0.045442
 H         0.078662         3.041885        -0.988176
 H         1.242547         3.837917        -1.935337
 H         0.611378         2.567836        -2.757083
 H         2.556239         1.235335        -3.249142
 H         3.981308         2.172852        -2.434438
 H         4.180769        -1.206290        -0.698404
 H         0.739973        -0.165893        -0.643403
 H         3.617853         0.355955         1.861082
 H         2.164254         2.641841         0.792227
 H         3.683766         2.819677        -0.081364
