19
Iteration:  1273charge 0 multiplicity 1
 C         0.908662         2.844698        -1.865557
 C         1.920931         1.909994        -1.281589
 C         3.064873         1.504065        -2.255769
 C         3.164423         0.246689        -1.416874
 O         3.732563        -1.063130        -1.558912
 C         1.705569         0.448772        -0.744947
 C         3.017218         0.727741         0.018384
 O         3.620463         0.047713         1.068980
 C         2.666580         2.159007         0.087017
 H         0.021479         3.014048        -1.230106
 H         1.276259         3.858022        -2.067681
 H         0.442978         2.515278        -2.891124
 H         2.742691         1.281167        -3.248815
 H         3.963712         2.162404        -2.341450
 H         4.651620        -1.095616        -1.878336
 H         0.897294        -0.316175        -0.311116
 H         3.712502        -0.887394         0.906526
 H         2.115734         2.481288         1.001834
 H         3.385285         3.069736         0.035569
