19
Iteration:  3599charge 0 multiplicity 1
 C         0.946019         2.912369        -1.693523
 C         2.007515         1.938433        -1.273178
 C         2.969209         1.437718        -2.313937
 C         3.075585         0.186601        -1.473782
 O         3.938433        -0.896441        -1.607365
 C         1.720351         0.380749        -0.804564
 C         2.965783         0.620775         0.021924
 O         3.419714        -0.010820         1.134482
 C         2.761828         2.217420        -0.030863
 H         0.133970         3.055692        -0.902431
 H         1.427151         3.825999        -2.009462
 H         0.488025         2.621065        -2.673771
 H         2.430154         1.010935        -3.187880
 H         4.049120         1.737927        -2.461869
 H         3.895864        -1.465370        -0.849871
 H         0.727642        -0.079659        -0.659139
 H         4.368599         0.043008         1.054166
 H         1.979452         2.587538         0.729743
 H         3.651725         2.779316        -0.040849
