19
Iteration:  3468charge 0 multiplicity 1
 C         0.839841         2.984924        -1.737201
 C         1.979262         1.890685        -1.300710
 C         2.975571         1.403855        -2.276209
 C         3.229125         0.183215        -1.425317
 O         3.920286        -0.956982        -1.647110
 C         1.770944         0.392889        -0.811045
 C         3.000179         0.712514        -0.014143
 O         3.311942        -0.047093         1.130090
 C         2.817115         2.224459        -0.004864
 H         0.261438         3.235079        -0.758674
 H         1.382467         3.907202        -2.044018
 H         0.179559         2.418289        -2.463858
 H         2.424626         1.270193        -3.266937
 H         3.858009         2.023831        -2.729789
 H         4.112148        -1.374374        -0.742241
 H         1.000141        -0.325554        -0.671554
 H         4.270788        -0.160368         1.327919
 H         2.096936         2.518267         0.938325
 H         3.589294         2.967180         0.128721
