19
Iteration:  3351charge 0 multiplicity 1
 C         0.827872         2.824194        -1.772311
 C         1.995896         1.916934        -1.391832
 C         3.127212         1.469066        -2.251082
 C         3.236794         0.281818        -1.318128
 O         3.764366        -0.940785        -1.729573
 C         1.811764         0.402676        -0.730970
 C         2.984429         0.700602         0.064890
 O         3.395866        -0.146875         1.102124
 C         2.741694         2.286501         0.018502
 H         0.176127         3.180119        -0.863221
 H         1.118048         3.779162        -2.187280
 H         0.163509         2.436857        -2.582271
 H         2.782621         1.035001        -3.284381
 H         3.961838         2.159584        -2.440647
 H         3.686616        -1.576163        -0.973790
 H         0.931792        -0.102061        -0.674766
 H         4.235815         0.168277         1.469999
 H         2.130126         2.732001         0.840277
 H         3.777766         2.930233        -0.080033
