19
Iteration:  2092
 C         0.859212         2.801365        -1.810984
 C         1.975202         1.954470        -1.249423
 C         3.127068         1.452889        -2.241679
 C         3.101285         0.200732        -1.392640
 O         3.686078        -0.958719        -1.658684
 C         1.774631         0.432613        -0.781332
 C         3.054009         0.736116         0.053892
 O         3.612530        -0.110322         0.974979
 C         2.708287         2.262254         0.052598
 H         0.024996         3.099967        -1.142599
 H         1.277583         3.835078        -2.014754
 H         0.482295         2.483142        -2.824357
 H         2.757479         1.471641        -3.230274
 H         4.049733         2.030107        -2.124558
 H         4.303950        -1.253718        -0.911602
 H         0.866910        -0.274137        -0.450733
 H         3.066712        -0.230498         1.743313
 H         2.101762         2.629529         0.832196
 H         3.337410         3.149112         0.104839
