19
Iteration:  3726charge 0 multiplicity 1
 C         1.005241         2.897368        -1.753463
 C         1.971781         1.908994        -1.322439
 C         2.997457         1.394204        -2.316936
 C         3.223822         0.299947        -1.362741
 O         3.830597        -1.012740        -1.657107
 C         1.710273         0.422669        -0.743758
 C         2.988576         0.709195         0.041530
 O         3.464497        -0.067573         1.055060
 C         2.627241         2.242750         0.026391
 H         0.040713         2.977613        -1.237436
 H         1.488628         3.966261        -1.726283
 H         0.582324         2.671027        -2.765480
 H         2.590108         0.789433        -3.181506
 H         3.715431         2.160541        -2.557473
 H         4.058823        -1.162485        -0.721636
 H         0.835183        -0.255160        -0.548871
 H         4.364345         0.194310         1.335929
 H         1.970507         2.426221         0.880164
 H         3.575851         2.938061        -0.055156
