19
Iteration:  1560
 C         0.894566         2.858338        -1.758294
 C         2.014216         1.937651        -1.224476
 C         3.025333         1.410543        -2.263256
 C         3.107895         0.179153        -1.414491
 O         3.851767        -1.012871        -1.711605
 C         1.755975         0.434219        -0.816203
 C         3.023750         0.760728        -0.026031
 O         3.432889         0.019890         1.037797
 C         2.717022         2.224012         0.160796
 H         0.158567         3.178894        -0.963028
 H         1.445114         3.788737        -2.050326
 H         0.452136         2.391767        -2.602617
 H         2.504347         1.055795        -3.266886
 H         4.006842         1.899024        -2.599895
 H         4.066547        -1.443676        -0.892482
 H         0.851780        -0.144490        -0.350221
 H         4.367385         0.074874         1.221548
 H         1.867318         2.320576         0.845130
 H         3.496379         3.037926         0.154120
