19
Iteration:  1390
 C         0.874938         2.863982        -1.730094
 C         1.988586         1.948929        -1.299253
 C         2.994391         1.372056        -2.413846
 C         3.225430         0.308266        -1.370776
 O         3.748188        -0.978350        -1.582006
 C         1.745198         0.430623        -0.822717
 C         2.909178         0.749780         0.089870
 O         3.613202        -0.057727         1.144326
 C         2.740010         2.241335         0.078096
 H         0.146587         3.140397        -0.971219
 H         1.371853         3.774061        -2.127320
 H         0.430568         2.377905        -2.628638
 H         2.209510         1.028870        -3.240409
 H         3.934908         1.913082        -2.865413
 H         4.648851        -1.142791        -1.313539
 H         0.848809        -0.320118        -1.019164
 H         3.796763        -0.860772         0.662111
 H         1.945545         2.555732         0.778492
 H         3.392186         3.062498        -0.017192
