19
Iteration:   517charge 0 multiplicity 1
 C         0.841549         2.893419        -1.716134
 C         1.914785         1.971833        -1.318324
 C         2.970934         1.390609        -2.339140
 C         3.153201         0.218358        -1.399864
 O         3.902588        -0.932924        -1.586257
 C         1.771938         0.380567        -0.849228
 C         2.904570         0.751639         0.073898
 O         3.542604        -0.127763         1.073247
 C         2.840179         2.243765        -0.020859
 H         0.289614         3.109212        -0.815566
 H         1.166455         3.885894        -1.947446
 H         0.148393         2.527959        -2.415779
 H         2.448120         1.394168        -3.325516
 H         3.906204         2.141446        -2.560792
 H         4.378651        -0.962157        -0.676664
 H         0.987742        -0.350767        -0.916384
 H         2.861224        -0.484868         1.712870
 H         2.315322         2.771596         0.868902
 H         3.853757         2.658936        -0.267449
