19
Iteration:  4781charge 0 multiplicity 1
 C         0.928101         2.985086        -1.787443
 C         1.912898         1.898045        -1.252865
 C         3.054506         1.400406        -2.269705
 C         3.161691         0.239100        -1.382778
 O         3.988829        -0.941145        -1.584504
 C         1.752499         0.382462        -0.783438
 C         2.840937         0.757444         0.058926
 O         3.583251        -0.074468         1.045116
 C         2.657495         2.272215        -0.008437
 H         0.078041         3.209577        -1.146718
 H         1.563949         3.668605        -2.207620
 H         0.415459         2.468862        -2.589727
 H         2.606740         1.001630        -3.112400
 H         3.972155         1.885260        -2.429540
 H         3.518353        -1.796951        -1.857141
 H         0.844037        -0.321919        -0.624654
 H         2.845324        -0.661096         1.379471
 H         1.997117         2.502188         0.871036
 H         3.561023         3.012074         0.077315
