19
Iteration:  2201charge 0 multiplicity 1
 C         0.874046         2.877537        -1.761361
 C         1.975666         1.910295        -1.303836
 C         2.983947         1.433537        -2.341131
 C         3.167471         0.300112        -1.348827
 O         3.830604        -0.917887        -1.688447
 C         1.731858         0.511153        -0.775282
 C         2.982049         0.683943         0.113835
 O         3.494413        -0.141340         1.080280
 C         2.877947         2.233172         0.016568
 H         0.322102         3.132735        -0.877157
 H         1.156656         3.661592        -2.397865
 H         0.336794         2.286484        -2.527757
 H         2.515813         0.965259        -3.161030
 H         3.711930         2.151146        -2.727207
 H         4.009573        -1.299702        -0.762497
 H         0.996317        -0.260856        -0.873185
 H         2.856808        -0.523981         1.756283
 H         2.130083         2.620493         0.777534
 H         3.893499         2.748715        -0.061682
