19
Iteration:  4967charge 0 multiplicity 1
 C         0.915629         2.936867        -1.793693
 C         1.914516         1.939042        -1.302721
 C         2.947646         1.411238        -2.333226
 C         3.100360         0.257521        -1.402117
 O         3.916588        -0.899017        -1.537596
 C         1.760804         0.371126        -0.875256
 C         3.010446         0.663118         0.021240
 O         3.517201        -0.112393         1.064321
 C         2.737314         2.174004         0.067312
 H         0.027859         3.115682        -1.135185
 H         1.341833         3.839023        -2.193969
 H         0.238685         2.638497        -2.671704
 H         2.520993         0.907243        -3.276039
 H         3.818401         2.160054        -2.474218
 H         4.192826        -1.007565        -0.570288
 H         0.804081        -0.231825        -0.866680
 H         3.978307         0.415131         1.756917
 H         2.112325         2.458272         0.904189
 H         3.625600         2.773831         0.134039
