19
Iteration:  3555
 C         0.922615         2.933497        -1.787467
 C         1.990057         1.916601        -1.277418
 C         3.070531         1.432649        -2.286865
 C         3.168957         0.232960        -1.358754
 O         3.723237        -0.968979        -1.651246
 C         1.789020         0.347476        -0.794614
 C         2.984883         0.779471         0.066679
 O         3.511684        -0.101298         1.086255
 C         2.701272         2.215236        -0.013806
 H         0.033755         2.922484        -1.073537
 H         1.038079         3.996862        -2.025099
 H         0.586563         2.612661        -2.812799
 H         2.527580         1.195862        -3.248338
 H         3.922027         2.237691        -2.284049
 H         4.155624        -1.383639        -0.921572
 H         0.972694        -0.334224        -0.809968
 H         4.295581         0.125815         1.587738
 H         1.925163         2.461525         0.872551
 H         3.493304         2.916863        -0.202662
