19
Iteration:   984
 C         0.800731         2.758612        -1.822702
 C         1.968367         1.958637        -1.271590
 C         3.073430         1.522455        -2.282924
 C         3.166354         0.195070        -1.459279
 O         3.708946        -1.015216        -1.636487
 C         1.744658         0.445407        -0.818900
 C         3.056078         0.681704         0.005211
 O         3.546995         0.026701         1.200125
 C         2.828561         2.231030         0.024502
 H        -0.150745         2.739177        -1.239961
 H         1.080836         3.821440        -2.053904
 H         0.685022         2.303796        -2.774534
 H         2.565613         1.561386        -3.302852
 H         3.964493         2.156295        -2.062056
 H         4.617367        -0.958916        -1.145297
 H         0.990241        -0.168358        -0.585653
 H         2.853628        -0.649461         1.425589
 H         2.322932         2.455010         0.966074
 H         3.558090         2.967919        -0.120249
