19
Iteration:   196
 C         0.864703         2.820076        -1.763822
 C         1.962767         1.954977        -1.289281
 C         2.986760         1.350124        -2.327582
 C         3.147415         0.238774        -1.345685
 O         3.875160        -0.890059        -1.739920
 C         1.787150         0.423077        -0.792326
 C         2.964302         0.764125         0.061281
 O         3.503363        -0.116991         1.097448
 C         2.808773         2.274331         0.050964
 H         0.187096         2.884388        -0.897141
 H         1.315406         3.826667        -1.886594
 H         0.262060         2.559696        -2.658344
 H         2.376082         1.051982        -3.167123
 H         3.854563         1.915945        -2.700955
 H         4.182718        -1.371675        -0.911581
 H         0.898215        -0.332623        -0.751757
 H         2.869907        -0.035723         1.810935
 H         2.276966         2.702010         0.949691
 H         3.704649         2.933753        -0.020658
