19
Iteration:  2777
 C         0.856998         2.901317        -1.722151
 C         1.966263         1.950455        -1.324342
 C         3.143735         1.356207        -2.289389
 C         3.183702         0.214653        -1.349254
 O         3.713239        -0.953102        -1.695435
 C         1.723509         0.422188        -0.807566
 C         2.897723         0.774221         0.118678
 O         3.613720        -0.074408         0.996166
 C         2.786753         2.221568         0.013642
 H         0.079665         2.923528        -0.975221
 H         1.227440         3.962354        -1.998602
 H         0.288647         2.520949        -2.583088
 H         2.547248         1.088737        -3.229598
 H         4.021175         1.947225        -2.264936
 H         4.004333        -1.296950        -0.827174
 H         0.845608        -0.331194        -0.692008
 H         3.175750        -0.125740         1.897951
 H         2.296934         2.891625         0.733551
 H         3.820684         2.698413         0.058188
