19
Iteration:  4422charge 0 multiplicity 1
 C         0.845192         2.787806        -1.686056
 C         2.006962         1.907808        -1.424347
 C         3.147400         1.391433        -2.350936
 C         3.244867         0.293304        -1.348972
 O         3.980478        -0.853159        -1.534731
 C         1.719042         0.499861        -0.844748
 C         2.900336         0.720003         0.081797
 O         3.372933        -0.068245         1.179228
 C         2.705234         2.201399        -0.004937
 H         0.181536         3.021776        -0.824638
 H         1.159853         3.769901        -2.034651
 H         0.209820         2.354009        -2.512656
 H         2.626335         1.231325        -3.370683
 H         4.095337         1.942571        -2.357623
 H         3.500532        -1.451805        -2.162609
 H         0.818383        -0.196480        -0.875557
 H         3.539541        -0.895742         0.686237
 H         1.981322         2.499371         0.753625
 H         3.651619         2.784452        -0.043575
