19
Iteration:  1244charge 0 multiplicity 1
 C         0.919436         2.859522        -1.778640
 C         2.027839         1.951950        -1.273361
 C         3.046649         1.364099        -2.314613
 C         3.045515         0.220214        -1.338439
 O         3.838024        -0.953858        -1.570382
 C         1.671660         0.447245        -0.801859
 C         2.830023         0.717326         0.105680
 O         3.647278        -0.011962         1.045238
 C         2.694562         2.220584         0.055621
 H         0.068195         3.039017        -1.056765
 H         1.211203         3.790426        -2.262984
 H         0.370023         2.412970        -2.587559
 H         2.566800         0.880320        -3.231031
 H         4.100518         1.861137        -2.320694
 H         4.840591        -0.952241        -1.635429
 H         0.684586        -0.039123        -0.964781
 H         4.277516        -0.598914         0.544129
 H         2.018463         2.683066         0.756685
 H         3.505021         2.934081        -0.062464
