19
Iteration:  1241
 C         0.915293         2.860651        -1.784575
 C         2.009497         1.940516        -1.281571
 C         3.048878         1.389073        -2.325926
 C         3.054586         0.239489        -1.308710
 O         3.850606        -0.973690        -1.574966
 C         1.669844         0.460869        -0.816884
 C         2.832795         0.718563         0.120916
 O         3.627401        -0.014974         1.047697
 C         2.714474         2.204288         0.054009
 H         0.157750         3.029940        -0.984091
 H         1.242377         3.806743        -2.221601
 H         0.270859         2.391939        -2.610374
 H         2.553058         0.925022        -3.137704
 H         4.097884         1.884935        -2.419637
 H         4.824064        -0.919749        -1.585431
 H         0.647715        -0.144689        -0.869850
 H         4.272200        -0.512154         0.461379
 H         1.991738         2.643029         0.763095
 H         3.585696         2.880981        -0.217159
