19
Iteration:  3944charge 0 multiplicity 1
 C         0.774173         2.909180        -1.657742
 C         1.986836         1.930094        -1.400013
 C         3.086034         1.355684        -2.261353
 C         3.113696         0.196163        -1.389308
 O         3.960294        -1.022158        -1.677795
 C         1.743740         0.516889        -0.795984
 C         2.905163         0.740265         0.011980
 O         3.407140        -0.086152         1.106259
 C         2.836767         2.250558         0.022029
 H         0.088378         3.078324        -0.856529
 H         1.031143         3.840434        -2.182864
 H         0.265279         2.415421        -2.485046
 H         2.658441         1.165104        -3.340468
 H         3.999488         1.957866        -2.410079
 H         4.061900        -1.560321        -0.838848
 H         0.882822        -0.128567        -0.691335
 H         3.996525         0.598637         1.568203
 H         2.124691         2.784958         0.753641
 H         3.894193         2.715855        -0.114288
