19
Iteration:  1408
 C         0.903995         2.883735        -1.851202
 C         1.977293         1.977683        -1.274640
 C         3.031921         1.394822        -2.313149
 C         3.082539         0.174809        -1.399739
 O         3.755605        -1.046441        -1.593272
 C         1.774636         0.445512        -0.802384
 C         2.960938         0.736801         0.108923
 O         3.639720         0.067487         1.001568
 C         2.659242         2.183998         0.147653
 H         0.170896         2.874802        -0.990420
 H         1.364327         3.865692        -2.097923
 H         0.370478         2.511969        -2.696405
 H         2.532783         1.089790        -3.166993
 H         3.870722         2.048410        -2.388525
 H         4.675368        -0.782342        -1.509463
 H         0.851631        -0.073428        -0.602767
 H         3.877635        -0.813835         0.773250
 H         1.934483         2.507800         0.914607
 H         3.577280         2.794724         0.464139
