19
Iteration:  3188charge 0 multiplicity 1
 C         0.943154         2.885018        -1.776482
 C         1.931020         1.843034        -1.241163
 C         2.989358         1.507399        -2.256006
 C         3.196700         0.319218        -1.407273
 O         3.766001        -1.032686        -1.678296
 C         1.792855         0.362596        -0.789443
 C         3.070737         0.720747        -0.020507
 O         3.502847        -0.055433         1.134888
 C         2.754026         2.281982        -0.018601
 H         0.329257         3.198902        -0.854541
 H         1.461073         3.822864        -2.070275
 H         0.287947         2.515111        -2.561764
 H         2.696948         1.270069        -3.345387
 H         3.775011         2.229309        -2.355068
 H         4.128399        -1.342347        -0.832760
 H         0.896583        -0.343434        -0.662079
 H         2.646972        -0.459618         1.277902
 H         2.012878         2.449470         0.756999
 H         3.574798         2.954757         0.068588
