19
Iteration:   643
 C         0.905407         2.890066        -1.780757
 C         1.948323         1.918184        -1.351811
 C         3.050529         1.434807        -2.306063
 C         3.164530         0.238406        -1.318032
 O         3.777850        -0.971868        -1.645349
 C         1.733493         0.384656        -0.770863
 C         2.918149         0.756315         0.103025
 O         3.614409        -0.067418         0.985615
 C         2.702283         2.219422         0.070670
 H         0.159407         2.881515        -0.955983
 H         1.356757         3.858674        -2.039945
 H         0.386413         2.545138        -2.726042
 H         2.691299         1.234743        -3.321365
 H         4.052056         1.793406        -2.446813
 H         4.661855        -0.910348        -1.145860
 H         0.955067        -0.228733        -0.779845
 H         3.171808        -0.125562         1.858204
 H         1.932939         2.453241         0.772799
 H         3.523569         2.948957         0.198288
