19
Iteration:   939
 C         0.896259         2.899923        -1.751791
 C         1.925140         1.941465        -1.325945
 C         3.115507         1.448718        -2.343176
 C         3.155152         0.220873        -1.373602
 O         3.734385        -0.987867        -1.551361
 C         1.775228         0.385033        -0.853595
 C         2.979061         0.746300         0.100632
 O         3.683335        -0.080067         1.051165
 C         2.585504         2.231011         0.001612
 H         0.379843         3.078879        -0.811050
 H         1.440681         3.795552        -2.037775
 H         0.249296         2.517791        -2.517202
 H         2.623442         0.995401        -3.267249
 H         4.070078         1.936379        -2.587560
 H         4.649587        -0.804469        -1.119474
 H         0.862426        -0.166542        -0.837728
 H         2.976749        -0.328936         1.672541
 H         1.785712         2.578777         0.678044
 H         3.340307         2.927985        -0.003212
