19
Iteration:  2891charge 0 multiplicity 1
 C         0.981250         2.891564        -1.789270
 C         1.971803         1.965060        -1.210289
 C         3.017696         1.505228        -2.213571
 C         3.145154         0.199685        -1.410117
 O         3.672567        -1.123610        -1.687568
 C         1.782816         0.393428        -0.815408
 C         2.981938         0.683765         0.001133
 O         3.526884         0.055296         1.121333
 C         2.743429         2.244160         0.035007
 H         0.206502         3.249004        -1.064499
 H         1.574642         3.678167        -2.127487
 H         0.405601         2.411691        -2.597632
 H         2.425466         1.282022        -3.172006
 H         3.921460         2.241258        -2.361784
 H         4.619543        -0.987479        -1.680504
 H         0.781577        -0.047275        -0.499253
 H         3.951669        -0.824455         0.881210
 H         2.217600         2.384648         1.042799
 H         3.448053         3.035265         0.088598
