19
Iteration:  1295
 C         0.810560         2.849857        -1.828612
 C         1.906111         1.886151        -1.242143
 C         3.003723         1.518595        -2.262142
 C         3.255745         0.254772        -1.325585
 O         3.635036        -1.088400        -1.670228
 C         1.907599         0.367119        -0.854895
 C         3.042968         0.778857         0.116381
 O         3.521732         0.042982         1.204322
 C         2.781258         2.228869        -0.029807
 H        -0.079365         3.046507        -1.197359
 H         1.286961         3.829590        -1.958820
 H         0.392699         2.579469        -2.859792
 H         2.512537         1.236997        -3.156524
 H         3.822035         2.199510        -2.459180
 H         4.609728        -1.109705        -1.633343
 H         1.189954        -0.521743        -1.083515
 H         3.760978        -0.833554         0.803053
 H         2.139089         2.595912         0.805137
 H         3.595505         3.020547        -0.053366
