19
Iteration:  2211charge 0 multiplicity 1
 C         0.905895         2.813471        -1.773485
 C         2.028397         1.971330        -1.258962
 C         2.974056         1.483864        -2.314424
 C         3.163244         0.222619        -1.397701
 O         3.793482        -0.932724        -1.653710
 C         1.762212         0.450080        -0.846689
 C         2.968773         0.714865         0.040959
 O         3.530028        -0.081866         1.084953
 C         2.865836         2.158140         0.056194
 H         0.171756         3.204768        -1.079001
 H         1.193959         3.709901        -2.266976
 H         0.219718         2.139909        -2.356570
 H         2.431134         1.192430        -3.192653
 H         3.727091         2.288418        -2.504665
 H         3.940819        -1.359543        -0.754419
 H         0.769155         0.015932        -0.633337
 H         2.726566        -0.404274         1.617092
 H         2.153970         2.700202         0.784497
 H         3.720495         2.898793         0.026927
