19
Iteration:   807charge 0 multiplicity 1
 C         0.841786         2.856915        -1.725603
 C         1.990301         1.909031        -1.348232
 C         3.144493         1.426971        -2.266696
 C         3.171272         0.260914        -1.306894
 O         3.753835        -1.017766        -1.557172
 C         1.720649         0.466138        -0.900634
 C         2.917684         0.706246         0.087663
 O         3.661965        -0.013170         1.009375
 C         2.681346         2.198587         0.022377
 H         0.101666         3.064564        -0.962190
 H         1.164681         3.806645        -2.072713
 H         0.192562         2.554768        -2.572120
 H         2.734561         1.002152        -3.258788
 H         3.808864         2.258103        -2.526066
 H         4.679664        -0.997736        -1.265824
 H         0.742759        -0.203226        -1.081048
 H         3.103854        -0.477487         1.660000
 H         1.880604         2.593990         0.742249
 H         3.574238         2.919927        -0.023669
