19
Iteration:  4696
 C         0.843434         2.792131        -1.768878
 C         1.970377         1.970251        -1.313631
 C         3.143699         1.517392        -2.256936
 C         3.161619         0.206330        -1.388250
 O         3.774126        -0.944880        -1.732094
 C         1.828543         0.418920        -0.806148
 C         3.040970         0.738311         0.038154
 O         3.385909        -0.090904         1.214379
 C         2.738313         2.149314        -0.044705
 H        -0.000040         2.778276        -1.047510
 H         0.984974         3.871120        -1.886404
 H         0.532230         2.396746        -2.776353
 H         2.905694         1.411533        -3.340817
 H         4.217121         1.894706        -2.313377
 H         4.641585        -0.994607        -1.373077
 H         0.882877        -0.175258        -0.499773
 H         3.125701         0.468369         1.933733
 H         2.060353         2.477462         0.731509
 H         3.601453         2.853458        -0.045694
