19
Iteration:  4944
 C         0.957339         2.874774        -1.766227
 C         2.008565         1.969636        -1.276126
 C         3.005435         1.349918        -2.330804
 C         3.174217         0.267398        -1.335519
 O         3.978873        -0.888360        -1.550218
 C         1.583118         0.379338        -0.728865
 C         2.789667         0.653315         0.055921
 O         3.605529        -0.111539         0.904271
 C         2.702287         2.251143         0.015262
 H         0.130321         3.225735        -1.094040
 H         1.503935         3.730601        -2.192211
 H         0.308776         2.635023        -2.637311
 H         2.346182         1.127403        -3.252237
 H         4.004800         1.920113        -2.547313
 H         4.492678        -1.021489        -0.749307
 H         0.636849        -0.084678        -0.664130
 H         3.294783        -0.081606         1.809298
 H         1.967102         2.680401         0.715454
 H         3.563841         2.842249        -0.044326
