19
Iteration:  1811
 C         0.878638         2.927864        -1.773307
 C         1.945124         1.857016        -1.340998
 C         3.039775         1.420015        -2.307920
 C         3.137316         0.233229        -1.297137
 O         3.811159        -0.917731        -1.688229
 C         1.754356         0.447968        -0.725112
 C         2.986163         0.773559         0.111780
 O         3.566712        -0.183109         1.049864
 C         2.786093         2.250448        -0.068755
 H         0.107164         2.999775        -0.935918
 H         1.223206         4.010496        -1.766957
 H         0.406421         2.673432        -2.740634
 H         2.812949         1.209272        -3.388336
 H         3.825368         2.134763        -2.213445
 H         4.045443        -1.417900        -0.901718
 H         0.902239        -0.255870        -0.729460
 H         2.871627        -0.413546         1.728221
 H         2.030520         2.665698         0.678290
 H         3.646386         3.008788        -0.088366
