19
Iteration:  1489charge 0 multiplicity 1
 C         0.839653         2.802069        -1.657060
 C         1.987087         1.955381        -1.328010
 C         3.017267         1.404337        -2.379401
 C         3.091739         0.167288        -1.438399
 O         3.930838        -0.959644        -1.596516
 C         1.812672         0.466255        -0.779218
 C         3.061827         0.746987        -0.018087
 O         3.327607        -0.045787         1.150424
 C         2.817893         2.313103         0.038901
 H         0.279287         2.991116        -0.761538
 H         1.226785         3.773358        -1.938008
 H         0.258590         2.298171        -2.471106
 H         2.509070         1.210110        -3.364287
 H         3.841603         2.090302        -2.695308
 H         3.532043        -1.579551        -2.198902
 H         0.937931         0.019794        -0.370104
 H         4.198750        -0.387782         1.285624
 H         2.097250         2.436223         0.856447
 H         3.686078         2.900261         0.151327
