19
Iteration:  4531charge 0 multiplicity 1
 C         0.935874         2.807075        -1.757681
 C         1.925781         1.897245        -1.283113
 C         3.084351         1.508645        -2.259648
 C         3.207478         0.237845        -1.499157
 O         3.887248        -0.921526        -1.641572
 C         1.793449         0.403849        -0.846462
 C         3.027276         0.653697        -0.003429
 O         3.307204        -0.008901         1.208006
 C         2.697287         2.212791         0.005000
 H         0.138592         2.912287        -0.930814
 H         1.263600         3.843120        -1.878426
 H         0.629757         2.346338        -2.744536
 H         2.867030         1.285263        -3.290026
 H         3.665283         2.426946        -2.310281
 H         3.664883        -1.550431        -0.891292
 H         1.034642        -0.269403        -0.633442
 H         4.280783        -0.279647         1.196252
 H         2.056884         2.486983         0.784010
 H         3.465053         2.960014        -0.014538
