19
Iteration:  4132
 C         0.855646         2.881732        -1.753614
 C         1.932447         1.870202        -1.351079
 C         3.151021         1.464472        -2.261520
 C         3.165117         0.239119        -1.358971
 O         3.909104        -0.930633        -1.662960
 C         1.684315         0.489112        -0.885096
 C         2.967905         0.641105         0.071292
 O         3.450886         0.013195         1.271085
 C         2.783575         2.184077         0.020663
 H         0.096558         3.047437        -1.019703
 H         1.184758         3.744530        -2.316762
 H         0.375111         2.337511        -2.527807
 H         2.939570         0.959590        -3.239976
 H         3.798184         2.258319        -2.479738
 H         3.301620        -1.722985        -1.677219
 H         0.789479        -0.002304        -1.145632
 H         3.907173        -0.833244         0.943143
 H         2.032257         2.614988         0.726442
 H         3.580762         2.971445        -0.140999
