19
Iteration:   480charge 0 multiplicity 1
 C         0.918133         2.901769        -1.781913
 C         1.952040         1.910980        -1.274184
 C         3.000865         1.393737        -2.251034
 C         3.146256         0.171225        -1.378822
 O         3.842728        -0.936196        -1.678985
 C         1.724405         0.480424        -0.808132
 C         3.027775         0.663732         0.025386
 O         3.626282        -0.027392         1.027615
 C         2.636076         2.240901         0.071957
 H         0.217125         2.964607        -0.933492
 H         1.454903         3.870121        -2.000233
 H         0.389480         2.618805        -2.749567
 H         2.485794         1.167410        -3.193066
 H         3.914510         2.085551        -2.343640
 H         4.160230        -1.587338        -1.002910
 H         0.929203        -0.297127        -0.713350
 H         2.944562        -0.083556         1.732878
 H         2.005908         2.366499         0.924012
 H         3.375682         3.086891         0.071363
