19
Iteration:  4106charge 0 multiplicity 1
 C         0.864986         2.852176        -1.778543
 C         2.029652         1.952918        -1.220774
 C         3.128087         1.410882        -2.330215
 C         3.177243         0.247801        -1.459255
 O         3.907091        -0.933613        -1.548242
 C         1.798864         0.366533        -0.795525
 C         2.890183         0.676584         0.021215
 O         3.404229         0.027580         1.123846
 C         2.801894         2.252322         0.077723
 H         0.135757         2.911195        -0.916315
 H         1.103548         3.829804        -2.284564
 H         0.256126         2.263588        -2.559343
 H         2.663681         1.158891        -3.265507
 H         3.819398         2.158984        -2.738540
 H         3.468151        -1.450874        -2.284715
 H         0.881508        -0.210382        -0.514169
 H         3.120927        -0.928249         1.066015
 H         1.967451         2.641018         0.680658
 H         3.563557         2.946636         0.061813
