19
Iteration:   353charge 0 multiplicity 1
 C         0.824597         2.878009        -1.741312
 C         2.002938         1.962024        -1.386407
 C         2.940629         1.381849        -2.354747
 C         3.191495         0.240661        -1.370908
 O         3.874316        -0.922937        -1.739342
 C         1.738851         0.432656        -0.797804
 C         2.906820         0.693959         0.169617
 O         3.521125        -0.001868         1.131283
 C         2.863524         2.165857         0.068067
 H         0.244135         2.977402        -0.811841
 H         1.260887         3.883425        -1.919702
 H         0.296439         2.438607        -2.578744
 H         2.635779         1.071027        -3.323538
 H         3.705162         2.021912        -2.502104
 H         4.366319        -1.307104        -1.029629
 H         0.916879        -0.171147        -0.876071
 H         2.939771        -0.708273         1.401197
 H         2.215424         2.707081         0.806775
 H         3.710044         2.755712         0.137787
