19
Iteration:  1202charge 0 multiplicity 1
 C         0.843816         2.859921        -1.673663
 C         1.919192         1.935064        -1.251335
 C         3.040958         1.451132        -2.418860
 C         3.209427         0.222704        -1.454736
 O         3.850508        -1.053985        -1.570621
 C         1.837596         0.392542        -0.799055
 C         3.106303         0.790952         0.055490
 O         3.325281         0.010778         1.214684
 C         2.763450         2.208915        -0.074438
 H         0.175888         3.093848        -0.800735
 H         1.240730         3.798082        -2.138691
 H         0.193932         2.409743        -2.382895
 H         2.304553         1.272935        -3.304288
 H         3.874602         2.057356        -2.696706
 H         4.627586        -0.738155        -2.017004
 H         1.128929        -0.426778        -0.580887
 H         3.435139        -0.901461         0.956793
 H         2.307683         2.631449         0.851618
 H         3.486874         3.085393        -0.164900
