19
Iteration:   819
 C         0.843893         2.844218        -1.730688
 C         1.925445         1.956398        -1.332294
 C         3.074623         1.540323        -2.317586
 C         3.223239         0.243145        -1.419027
 O         3.722052        -0.988591        -1.506817
 C         1.776337         0.418970        -0.846370
 C         2.964378         0.700529         0.005196
 O         3.591606        -0.000541         1.057291
 C         2.723114         2.143044        -0.021667
 H         0.176482         2.924426        -0.877916
 H         1.289458         3.789292        -2.056012
 H         0.469057         2.218119        -2.539332
 H         2.713698         1.222981        -3.364450
 H         4.073019         2.041586        -2.307794
 H         4.559918        -1.011157        -1.058068
 H         0.919329        -0.368969        -0.641785
 H         2.862635        -0.363171         1.632409
 H         2.049338         2.395652         0.885506
 H         3.735184         2.749320         0.081511
