19
Iteration:  1344
 C         0.826821         2.795445        -1.618697
 C         2.004537         1.951416        -1.251472
 C         3.062522         1.368738        -2.309704
 C         3.135770         0.128878        -1.426779
 O         3.890503        -1.076714        -1.704279
 C         1.737543         0.447093        -0.829567
 C         2.965764         0.736219        -0.057886
 O         3.365043         0.111954         1.208478
 C         2.830181         2.332713        -0.010054
 H         0.310671         2.858384        -0.625632
 H         0.890397         3.882064        -1.889814
 H         0.131569         2.328749        -2.264965
 H         2.646235         1.231627        -3.402518
 H         4.053571         2.009940        -2.443539
 H         4.775721        -0.658199        -1.844603
 H         0.853858        -0.137017        -0.684212
 H         3.511480        -0.830884         1.102369
 H         2.440454         2.795435         0.900814
 H         3.773978         2.757360        -0.245306
