19
Iteration:  2068
 C         0.844430         2.759858        -1.849777
 C         1.992254         2.043488        -1.201728
 C         2.979653         1.504390        -2.297157
 C         3.156735         0.243407        -1.419557
 O         3.809976        -1.016221        -1.671049
 C         1.747817         0.518843        -0.761444
 C         2.960912         0.704456         0.052285
 O         3.543761        -0.081090         0.998572
 C         2.836578         2.161086         0.119967
 H         0.042494         3.256453        -1.304288
 H         1.296644         3.622448        -2.356561
 H         0.546740         2.155289        -2.750204
 H         2.485680         1.307174        -3.224282
 H         3.818736         2.154033        -2.435192
 H         4.259961        -1.212048        -0.830845
 H         0.796456        -0.084973        -0.594159
 H         2.958648        -0.280364         1.791515
 H         2.505528         2.463855         1.096857
 H         3.651780         2.874000         0.265538
