19
Iteration:  1361
 C         0.745419         2.902121        -1.618850
 C         1.892544         1.905076        -1.336306
 C         3.058284         1.458858        -2.346466
 C         3.213187         0.220840        -1.425215
 O         3.830077        -1.017321        -1.607733
 C         1.823893         0.375037        -0.778445
 C         2.974317         0.767951         0.053195
 O         3.380767         0.024506         1.175991
 C         2.915742         2.181172        -0.085304
 H         0.052963         3.137949        -0.791731
 H         1.319330         3.673276        -2.109778
 H         0.129087         2.482262        -2.470775
 H         2.638260         1.141688        -3.262315
 H         3.868828         2.125184        -2.385664
 H         4.814780        -0.939610        -1.758364
 H         1.005710        -0.279078        -0.430961
 H         3.432424        -0.893536         0.833292
 H         2.348148         2.730173         0.691584
 H         3.770077         2.902104        -0.333523
