19
Iteration:  4196charge 0 multiplicity 1
 C         0.868531         2.942750        -1.887073
 C         1.982618         1.980465        -1.301846
 C         3.071073         1.415970        -2.307008
 C         3.158495         0.222060        -1.390483
 O         3.866311        -0.913020        -1.566296
 C         1.775061         0.444884        -0.799491
 C         3.012622         0.675126         0.089302
 O         3.446591        -0.146621         1.144610
 C         2.745884         2.179471         0.060356
 H         0.026031         2.774109        -1.207652
 H         1.063039         4.049497        -2.093328
 H         0.381414         2.534029        -2.824831
 H         2.718455         0.940845        -3.249997
 H         3.739487         2.257787        -2.607354
 H         3.477510        -1.567165        -2.133806
 H         0.922018        -0.159494        -0.592562
 H         4.080151         0.360162         1.679987
 H         1.904823         2.502826         0.707647
 H         3.555148         2.856698         0.130350
