19
Iteration:  4672charge 0 multiplicity 1
 C         0.853028         2.865289        -1.857237
 C         1.918029         1.930627        -1.222398
 C         3.065875         1.521498        -2.279193
 C         3.194729         0.208287        -1.332917
 O         3.823974        -1.061233        -1.639618
 C         1.761955         0.371930        -0.901238
 C         2.922634         0.745397         0.079368
 O         3.530727        -0.037893         1.099745
 C         2.764424         2.187399         0.101817
 H        -0.064954         3.054393        -1.245527
 H         1.240542         3.864098        -1.831687
 H         0.604564         2.694183        -2.907685
 H         2.742488         1.291472        -3.269897
 H         3.959321         2.220560        -2.509284
 H         4.805284        -0.951148        -1.737612
 H         0.828301        -0.174435        -1.116657
 H         2.873742         0.030911         1.847396
 H         2.117503         2.635141         0.891213
 H         3.689904         2.871894         0.081351
