19
Iteration:  3313
 C         0.925120         2.907259        -1.715253
 C         2.020512         1.921896        -1.297876
 C         2.975809         1.369861        -2.287645
 C         3.150168         0.179269        -1.460090
 O         3.938571        -0.895376        -1.679850
 C         1.706661         0.402767        -0.801574
 C         2.948045         0.732072        -0.002715
 O         3.331990         0.003683         1.120782
 C         2.817309         2.140101         0.070244
 H         0.184457         3.053736        -0.966670
 H         1.518546         3.825764        -2.010422
 H         0.254855         2.423315        -2.456398
 H         2.454837         1.187195        -3.163041
 H         3.827737         2.001943        -2.555578
 H         4.259057        -1.170453        -0.833098
 H         0.695722        -0.187277        -0.606567
 H         4.286552        -0.005242         1.236373
 H         2.083593         2.606533         0.793007
 H         3.816792         2.620476         0.059049
