19
Iteration:  2552
 C         0.903504         2.891058        -1.763220
 C         1.946611         1.979767        -1.336728
 C         3.025813         1.387082        -2.267006
 C         3.184411         0.249845        -1.228542
 O         3.777712        -0.942716        -1.696473
 C         1.642351         0.466616        -0.801872
 C         3.004979         0.683302         0.113221
 O         3.625154        -0.153868         0.991044
 C         2.769719         2.271881         0.000053
 H         0.466157         3.448837        -0.861469
 H         1.419359         3.641874        -2.386309
 H         0.125535         2.422105        -2.505800
 H         2.720233         1.021444        -3.218742
 H         3.848043         2.104773        -2.578790
 H         3.922143        -1.557815        -0.968376
 H         0.755012        -0.122667        -0.571887
 H         3.211280        -0.114594         1.855793
 H         1.985355         2.430338         0.699641
 H         3.618166         3.041262        -0.156267
