19
Iteration:    81charge 0 multiplicity 1
 C         0.858766         2.796657        -1.811402
 C         1.963118         1.904668        -1.249544
 C         3.018091         1.512021        -2.271488
 C         3.146280         0.212768        -1.415115
 O         3.813674        -1.025627        -1.783065
 C         1.758030         0.432697        -0.752840
 C         2.972977         0.750397         0.090988
 O         3.508748         0.044562         1.161410
 C         2.820685         2.195081         0.037699
 H         0.112165         2.775566        -1.053092
 H         1.224737         3.792586        -2.028657
 H         0.437548         2.428978        -2.730170
 H         2.560125         1.241696        -3.261962
 H         3.822232         2.199611        -2.477594
 H         4.492221        -1.275466        -1.135655
 H         0.725663         0.005363        -0.427387
 H         3.146137        -0.830172         1.185753
 H         2.343397         2.652178         0.894246
 H         3.762372         2.984172         0.056467
