19
Iteration:  3213
 C         0.818337         2.898855        -1.823943
 C         1.994577         1.982833        -1.270645
 C         3.183375         1.422784        -2.286312
 C         3.130668         0.291234        -1.333393
 O         3.742161        -1.008618        -1.707612
 C         1.757835         0.435049        -0.807179
 C         2.893238         0.710672         0.134316
 O         3.619282        -0.080772         1.061021
 C         2.737397         2.225181         0.021575
 H         0.174505         2.987179        -0.959984
 H         1.066055         3.967293        -2.158293
 H         0.141125         2.328025        -2.527242
 H         2.722797         1.235932        -3.223070
 H         4.146161         1.849105        -2.531396
 H         4.405439        -1.297804        -1.086364
 H         0.974752        -0.225487        -0.721501
 H         2.940018        -0.499419         1.634775
 H         2.021259         2.577574         0.883617
 H         3.683436         2.837403         0.034300
