19
Iteration:  1158
 C         0.776612         2.733557        -1.722465
 C         2.040153         1.954916        -1.326309
 C         3.111523         1.459291        -2.272668
 C         3.150041         0.188734        -1.457005
 O         3.725512        -0.955439        -1.786769
 C         1.776051         0.448467        -0.833073
 C         2.984273         0.647187         0.111540
 O         3.497825         0.129588         1.305276
 C         2.785437         2.214472        -0.020727
 H        -0.007506         2.710798        -0.911700
 H         1.208197         3.757890        -1.859899
 H         0.414252         2.363192        -2.657469
 H         2.887849         1.084980        -3.339500
 H         3.993013         1.962421        -2.496050
 H         4.479103        -1.113837        -1.241405
 H         0.925269        -0.366237        -0.852419
 H         3.250237        -0.778309         1.442904
 H         2.251940         2.891536         0.803492
 H         3.770567         2.877063        -0.315283
