19
Iteration:   920charge 0 multiplicity 1
 C         0.842468         2.959096        -1.789841
 C         1.903148         1.950080        -1.275309
 C         2.972083         1.430069        -2.324422
 C         3.219047         0.183456        -1.393883
 O         3.842511        -1.011685        -1.599065
 C         1.749028         0.365397        -0.823533
 C         3.019036         0.713984         0.009867
 O         3.545006         0.015148         1.045951
 C         2.741070         2.130951         0.057169
 H         0.192433         3.280175        -0.951355
 H         1.536206         3.779223        -2.188003
 H         0.249623         2.637735        -2.613688
 H         2.720058         1.324855        -3.421398
 H         3.839049         2.213008        -2.300392
 H         4.362880        -1.249208        -0.762478
 H         1.133692        -0.410275        -0.702902
 H         3.041525         0.137283         1.842450
 H         2.052420         2.367525         0.913977
 H         3.562497         2.988883         0.122660
