19
Iteration:  3607
 C         0.916027         2.867757        -1.697009
 C         1.974722         1.950779        -1.270308
 C         3.024787         1.391791        -2.289184
 C         3.062060         0.177380        -1.426890
 O         3.930603        -0.876681        -1.615579
 C         1.784265         0.416778        -0.800271
 C         2.912905         0.727329        -0.027503
 O         3.388088        -0.042614         1.123127
 C         2.804120         2.171343        -0.026122
 H         0.273425         3.277801        -0.970170
 H         1.414793         3.838044        -1.911030
 H         0.396950         2.532911        -2.584360
 H         2.492367         1.056840        -3.219781
 H         3.911819         1.865941        -2.705752
 H         3.655177        -1.519778        -0.948038
 H         1.048763        -0.323932        -0.613067
 H         4.319173         0.114941         1.240227
 H         2.278923         2.382954         0.839665
 H         3.598181         2.973377        -0.183505
