19
Iteration:  1428charge 0 multiplicity 1
 C         0.894721         2.883811        -1.785225
 C         1.886563         1.900315        -1.219584
 C         3.131936         1.508844        -2.200655
 C         3.048867         0.176418        -1.446119
 O         3.729974        -1.026226        -1.557679
 C         1.659771         0.404159        -0.772129
 C         3.036645         0.656389         0.055481
 O         3.677277         0.063214         1.083095
 C         2.661109         2.230684        -0.048662
 H        -0.139106         3.108404        -1.438518
 H         1.471701         3.753485        -2.119942
 H         0.609321         2.472124        -2.768306
 H         2.944835         1.434281        -3.265949
 H         4.058394         2.034721        -2.054836
 H         4.438010        -0.815009        -2.152267
 H         0.893057        -0.230414        -0.625280
 H         3.869373        -0.849269         0.800162
 H         2.118430         2.437638         0.909876
 H         3.617746         2.862333        -0.059006
