19
Iteration:  4246
 C         0.840086         2.874827        -1.695567
 C         1.968286         1.949400        -1.411259
 C         3.103931         1.423237        -2.331466
 C         3.126696         0.195282        -1.396677
 O         3.973251        -0.954595        -1.573924
 C         1.768902         0.435189        -0.817028
 C         2.984820         0.717772         0.014859
 O         3.303180         0.014065         1.237632
 C         2.814457         2.170250         0.047338
 H         0.134466         2.950336        -0.858879
 H         1.181520         3.776853        -2.115385
 H         0.244928         2.581724        -2.566727
 H         2.802401         1.282292        -3.373514
 H         4.053312         1.859335        -2.514880
 H         3.755295        -1.293700        -2.502190
 H         0.935641        -0.148184        -0.581461
 H         3.820895        -0.783428         0.906687
 H         2.044623         2.510942         0.763266
 H         3.558564         3.051683        -0.065760
