19
Iteration:  4702
 C         0.827520         2.749467        -1.755436
 C         2.024592         1.939034        -1.282739
 C         3.188982         1.471365        -2.311499
 C         3.180817         0.231519        -1.365218
 O         3.769380        -0.941897        -1.788982
 C         1.792926         0.400164        -0.804067
 C         3.036640         0.775186         0.110099
 O         3.353854        -0.082652         1.167343
 C         2.754631         2.205547        -0.012044
 H         0.017437         2.846247        -1.008656
 H         1.053960         3.842535        -1.822738
 H         0.421981         2.406815        -2.683546
 H         2.879999         1.220391        -3.321971
 H         4.115396         2.029792        -2.214688
 H         4.562790        -1.054632        -1.191526
 H         0.905583        -0.089542        -0.579373
 H         3.113654         0.582623         1.862494
 H         1.889091         2.374680         0.709270
 H         3.633049         2.887239        -0.141255
