19
Iteration:  3028charge 0 multiplicity 1
 C         0.886528         2.884382        -1.769534
 C         1.984158         1.890192        -1.260950
 C         3.026829         1.479507        -2.263488
 C         3.139230         0.238918        -1.430384
 O         3.702363        -1.032893        -1.743771
 C         1.761030         0.402270        -0.840068
 C         3.067429         0.677025         0.005623
 O         3.461855         0.122495         1.246745
 C         2.885815         2.133300         0.081674
 H         0.099859         3.123426        -1.097585
 H         1.323455         3.882324        -2.053975
 H         0.194047         2.388432        -2.479727
 H         2.647449         1.402939        -3.298297
 H         4.033466         2.005783        -2.606910
 H         4.699092        -0.993785        -1.727909
 H         0.777957        -0.171787        -0.730528
 H         2.986367        -0.734055         1.359428
 H         2.131210         2.276704         0.827291
 H         3.705934         2.848876         0.108123
