19
Iteration:  1876charge 0 multiplicity 1
 C         0.821542         2.978180        -1.649911
 C         1.915959         1.936427        -1.312744
 C         3.100889         1.366642        -2.324439
 C         3.172767         0.218435        -1.390655
 O         3.866532        -0.916342        -1.654248
 C         1.738736         0.388125        -0.817592
 C         3.019055         0.688804         0.066567
 O         3.490833        -0.118521         1.058031
 C         2.747573         2.208316        -0.087533
 H         0.585012         3.236465        -0.611920
 H         1.285997         3.777901        -2.238666
 H         0.035071         2.529728        -2.201170
 H         2.772203         1.185207        -3.358015
 H         3.882658         2.073031        -2.103425
 H         4.420687        -1.262473        -0.899826
 H         0.744710        -0.137156        -0.607544
 H         2.913264        -0.104765         1.863488
 H         2.133537         2.731622         0.735364
 H         3.554106         3.029603        -0.237006
