19
Iteration:   473
 C         0.869683         2.922626        -1.815715
 C         1.956527         1.942263        -1.231097
 C         3.028987         1.455291        -2.217102
 C         3.066081         0.138562        -1.424820
 O         3.884985        -1.021008        -1.729985
 C         1.708776         0.377850        -0.783908
 C         3.062163         0.736281         0.015452
 O         3.594749        -0.016031         1.019829
 C         2.673743         2.250117         0.108679
 H         0.123462         3.092558        -1.068012
 H         1.412131         3.838231        -1.961065
 H         0.521615         2.561333        -2.726854
 H         2.672618         1.228991        -3.232999
 H         4.039614         2.069368        -2.269253
 H         4.102327        -1.486318        -0.836444
 H         0.965582        -0.310363        -0.612393
 H         3.063861         0.096899         1.866474
 H         1.920476         2.406660         0.988669
 H         3.357218         3.142807         0.002311
