19
Iteration:  2677charge 0 multiplicity 1
 C         0.815315         2.878136        -1.668031
 C         2.003568         2.036499        -1.325988
 C         3.017902         1.414904        -2.322586
 C         3.099039         0.174506        -1.438007
 O         3.783695        -1.088610        -1.652381
 C         1.828182         0.435346        -0.796835
 C         2.990020         0.743741         0.042946
 O         3.458324        -0.020949         1.112272
 C         2.871897         2.210846        -0.022748
 H         0.243632         2.937756        -0.711199
 H         1.035273         3.993602        -1.842375
 H         0.218150         2.428916        -2.427878
 H         2.713542         1.381213        -3.424614
 H         4.022746         1.889364        -2.374420
 H         4.701814        -0.948386        -1.429917
 H         0.959338        -0.114193        -0.649262
 H         2.685501        -0.094970         1.719590
 H         2.510519         2.626221         0.893710
 H         3.764011         2.845876        -0.124893
