19
Iteration:  1314
 C         0.829285         2.786179        -1.706360
 C         2.003315         1.926450        -1.359934
 C         3.099577         1.401247        -2.453899
 C         3.234619         0.273702        -1.390701
 O         3.676949        -0.964441        -1.725875
 C         1.802872         0.433337        -0.786018
 C         2.950326         0.693401         0.058579
 O         3.484012         0.072905         1.319203
 C         2.776861         2.219546         0.042812
 H         0.178373         2.665866        -0.872581
 H         1.092533         3.835035        -1.917830
 H         0.233237         2.383384        -2.547117
 H         2.571819         0.948185        -3.331565
 H         3.936465         2.057403        -2.603753
 H         4.674586        -0.914983        -1.669649
 H         0.874370        -0.221354        -0.722205
 H         3.841108        -0.843768         1.103417
 H         2.145971         2.705275         0.818494
 H         3.747500         2.777574         0.019284
