19
Iteration:  2868
 C         0.898323         2.914792        -1.747285
 C         1.986437         1.926366        -1.280131
 C         3.089047         1.398418        -2.340765
 C         3.083427         0.227781        -1.400366
 O         3.688450        -0.997392        -1.750619
 C         1.720492         0.422350        -0.804688
 C         2.961994         0.661673         0.064408
 O         3.506486         0.103817         1.239610
 C         2.866247         2.128032         0.032034
 H         0.152200         3.142647        -0.960426
 H         1.371640         3.791916        -2.100809
 H         0.245024         2.407904        -2.515702
 H         2.528221         1.346052        -3.341168
 H         3.954338         2.146921        -2.319058
 H         4.627563        -0.842881        -1.459920
 H         0.952897        -0.313768        -0.931031
 H         3.682053        -0.815200         1.074183
 H         2.497027         2.567156         1.018615
 H         3.828724         2.643060         0.053231
