19
Iteration:  3639
 C         0.787816         2.830477        -1.741563
 C         1.984106         2.012460        -1.340594
 C         3.079432         1.427965        -2.303086
 C         3.210708         0.202825        -1.400027
 O         3.880720        -0.993005        -1.739402
 C         1.848459         0.493494        -0.767965
 C         2.982245         0.791571         0.174131
 O         3.335857        -0.204282         1.196766
 C         2.800156         2.298054        -0.081309
 H         0.215859         3.143056        -0.893897
 H         1.301776         3.682356        -2.285383
 H         0.094559         2.332636        -2.407415
 H         2.469460         1.057019        -3.178297
 H         3.782397         2.201977        -2.589895
 H         3.546933        -1.633118        -1.033519
 H         0.960216        -0.090722        -0.541691
 H         4.309054         0.006343         1.334122
 H         2.129317         2.613593         0.675958
 H         3.650448         3.084070        -0.255218
