19
Iteration:  1756charge 0 multiplicity 1
 C         0.827800         2.843346        -1.810842
 C         2.026039         1.996904        -1.278834
 C         3.164098         1.488871        -2.323863
 C         3.159356         0.303977        -1.334281
 O         3.604047        -0.978582        -1.617352
 C         1.765573         0.469045        -0.889565
 C         2.943004         0.644284         0.104809
 O         3.700076        -0.081560         1.085762
 C         2.678394         2.143508         0.030538
 H         0.169531         2.657843        -0.934280
 H         1.270694         3.843165        -1.982068
 H         0.385506         2.438384        -2.714094
 H         2.566953         1.140161        -3.197345
 H         3.965759         2.150241        -2.477339
 H         4.386847        -1.211460        -1.141961
 H         1.090602        -0.246157        -1.187052
 H         3.331528         0.184945         1.919808
 H         1.896990         2.386697         0.815981
 H         3.539050         2.865348         0.043778
