19
Iteration:  3962
 C         0.846638         2.746161        -1.759791
 C         2.048640         1.970930        -1.284589
 C         3.095288         1.416531        -2.396261
 C         3.087283         0.197131        -1.443378
 O         3.847638        -0.915632        -1.697476
 C         1.695467         0.443469        -0.797334
 C         2.956011         0.717739         0.071067
 O         3.389302        -0.038971         1.160886
 C         2.881298         2.224049         0.019926
 H         0.315301         2.884997        -0.793528
 H         1.175002         3.712781        -2.110238
 H         0.070950         2.301799        -2.412007
 H         2.761170         1.211669        -3.353393
 H         4.034597         1.987059        -2.380448
 H         4.127036        -1.304694        -0.817197
 H         0.697981         0.116264        -0.591341
 H         3.915074         0.477547         1.850605
 H         2.228272         2.434736         0.850803
 H         3.792060         2.784237         0.033978
