19
Iteration:  4431
 C         0.833428         2.814668        -1.804941
 C         1.949663         1.972261        -1.303772
 C         3.070438         1.441342        -2.307424
 C         3.253621         0.288664        -1.350647
 O         3.989705        -0.916225        -1.491270
 C         1.755623         0.483724        -0.895595
 C         2.876751         0.659953         0.105003
 O         3.401795        -0.069048         1.114620
 C         2.777116         2.218264         0.023985
 H         0.235461         2.756326        -0.834171
 H         1.157142         3.792898        -2.129159
 H         0.066809         2.404027        -2.466478
 H         2.823348         1.075297        -3.313785
 H         3.978593         2.015311        -2.439794
 H         3.615144        -1.354566        -2.309924
 H         0.808287        -0.158717        -0.951547
 H         3.500661        -1.018760         0.953931
 H         2.066996         2.685987         0.623883
 H         3.531527         2.954736        -0.073342
