19
Iteration:   341
 C         0.914668         2.842324        -1.742461
 C         2.020031         1.989258        -1.270245
 C         2.982026         1.338010        -2.394469
 C         3.123485         0.235543        -1.385708
 O         3.899939        -0.874120        -1.753836
 C         1.738956         0.480192        -0.819015
 C         2.876319         0.702502         0.107054
 O         3.572137        -0.034188         1.135107
 C         2.775215         2.212540         0.100536
 H         0.126633         2.871586        -0.995190
 H         1.124782         3.865152        -2.075726
 H         0.418171         2.380641        -2.592644
 H         2.273070         0.905126        -3.070874
 H         3.764469         1.784739        -2.871629
 H         4.131143        -1.286890        -0.900347
 H         0.823893        -0.109688        -0.892380
 H         3.009947        -0.619597         1.733685
 H         2.099517         2.491518         0.949335
 H         3.757412         2.583752         0.079836
