19
Iteration:  4294charge 0 multiplicity 1
 C         0.901622         2.812417        -1.801899
 C         1.919460         1.894240        -1.268271
 C         3.127354         1.489303        -2.343013
 C         3.207011         0.268674        -1.410580
 O         3.842244        -0.895660        -1.513424
 C         1.801894         0.394511        -0.842312
 C         2.952684         0.692020         0.045884
 O         3.497238        -0.046619         1.144321
 C         2.712197         2.207691        -0.002061
 H         0.258689         3.058430        -0.926718
 H         1.401297         3.759896        -2.218682
 H         0.208184         2.490330        -2.638725
 H         2.800317         1.478046        -3.352508
 H         3.845148         2.392926        -2.391172
 H         3.380685        -1.535306        -2.028463
 H         0.919739        -0.341351        -0.937313
 H         2.802994        -0.619139         1.483082
 H         2.085273         2.528066         0.868719
 H         3.649207         2.688331         0.140452
