19
Iteration:  2139
 C         0.933903         2.919140        -1.638781
 C         1.910177         1.941994        -1.252289
 C         3.062395         1.433628        -2.331499
 C         3.118467         0.200535        -1.490682
 O         3.817463        -0.961581        -1.615001
 C         1.735777         0.395056        -0.873848
 C         2.934799         0.670394        -0.015433
 O         3.580300         0.029707         1.088346
 C         2.790157         2.111687         0.018808
 H         0.008156         2.991647        -0.972936
 H         1.179877         4.061867        -1.690943
 H         0.503429         2.529216        -2.597115
 H         2.497312         1.025968        -3.250683
 H         4.010577         1.979085        -2.634919
 H         4.126878        -1.187836        -0.698697
 H         0.892594        -0.141720        -0.958840
 H         2.977739         0.137182         1.889372
 H         2.239519         2.563592         0.853745
 H         3.617467         2.805859         0.101467
