19
Iteration:   282charge 0 multiplicity 1
 C         0.836032         2.884294        -1.721197
 C         1.915746         1.953030        -1.311041
 C         3.116019         1.429384        -2.267724
 C         3.108639         0.236169        -1.373713
 O         3.771506        -0.976661        -1.586177
 C         1.749602         0.429129        -0.931830
 C         2.945415         0.710336         0.090085
 O         3.671909        -0.144022         1.030926
 C         2.700268         2.230492         0.005625
 H         0.150417         3.146452        -0.921214
 H         1.205696         3.811843        -2.094806
 H         0.255538         2.391495        -2.503411
 H         2.795348         1.199212        -3.280799
 H         3.939152         2.153057        -2.461613
 H         4.424457        -1.066132        -0.872890
 H         0.812308        -0.175955        -1.044666
 H         3.451350         0.223964         1.885015
 H         2.107796         2.623739         0.866894
 H         3.544730         3.066257         0.040909
