19
Iteration:  3712
 C         0.885952         2.936652        -1.836189
 C         1.904972         1.878071        -1.330538
 C         3.092581         1.425782        -2.292208
 C         3.217036         0.192215        -1.321550
 O         3.744130        -0.932587        -1.666726
 C         1.791496         0.410490        -0.773667
 C         2.961352         0.746888         0.107782
 O         3.509713        -0.092172         1.087210
 C         2.721022         2.214610         0.007469
 H         0.076543         2.901048        -1.123376
 H         1.378267         3.886280        -1.855084
 H         0.467667         2.743599        -2.829181
 H         2.682777         1.280734        -3.273588
 H         4.016157         2.003221        -2.351042
 H         3.874226        -1.642114        -0.976761
 H         1.018944        -0.294662        -0.486579
 H         4.338455         0.368108         1.379977
 H         1.910435         2.543118         0.698592
 H         3.517201         2.873765        -0.029139
