19
Iteration:  2228
 C         0.837398         2.818483        -1.754461
 C         1.983359         1.958247        -1.204176
 C         3.141065         1.487439        -2.284598
 C         3.049537         0.218798        -1.472141
 O         3.796323        -1.058286        -1.675395
 C         1.755236         0.476209        -0.788994
 C         3.000687         0.705693        -0.018810
 O         3.539908        -0.015636         1.034941
 C         2.764342         2.259550         0.097819
 H         0.281913         3.186403        -0.867251
 H         1.176341         3.683391        -2.446925
 H         0.382413         2.274488        -2.569851
 H         2.680172         1.477243        -3.331885
 H         4.173583         1.866774        -2.374727
 H         4.044296        -1.134665        -0.692514
 H         0.895022        -0.261948        -0.662524
 H         2.956280        -0.334301         1.788237
 H         2.233707         2.409934         1.019101
 H         3.659030         2.849684         0.098109
