19
Iteration:  2649
 C         0.843889         2.800196        -1.615870
 C         1.997062         1.960803        -1.329419
 C         3.034377         1.435493        -2.357180
 C         3.163266         0.264778        -1.371643
 O         3.714968        -1.029429        -1.565650
 C         1.794951         0.456471        -0.863606
 C         2.987479         0.747242         0.069099
 O         3.467158        -0.062912         1.069005
 C         2.898498         2.230379        -0.063340
 H         0.123933         2.751011        -0.793308
 H         1.169916         3.813196        -1.552265
 H         0.430528         2.510422        -2.630213
 H         2.664363         1.233779        -3.342354
 H         3.937612         1.950283        -2.725034
 H         4.670284        -1.041698        -1.757156
 H         0.691192         0.128699        -0.715074
 H         2.742006        -0.062180         1.688516
 H         2.347072         2.527438         0.914328
 H         3.912982         2.844661        -0.140168
