19
Iteration:   363
 C         0.817352         2.889601        -1.693210
 C         1.931077         1.895627        -1.323191
 C         3.054170         1.437219        -2.337680
 C         3.188774         0.232769        -1.371770
 O         3.840094        -0.952188        -1.718683
 C         1.762039         0.401047        -0.797844
 C         2.946564         0.711263         0.056812
 O         3.495467        -0.024550         1.167515
 C         2.864371         2.216295         0.005273
 H         0.105565         3.073643        -0.902562
 H         1.217259         3.855240        -2.021643
 H         0.168916         2.636766        -2.516375
 H         2.619312         1.171086        -3.272252
 H         3.838324         2.104321        -2.439246
 H         4.486094        -1.118668        -1.000200
 H         0.928172        -0.239572        -0.686709
 H         2.889034        -0.735996         1.327041
 H         2.081134         2.642401         0.685918
 H         3.769638         2.760489        -0.199537
