19
Iteration:   192
 C         0.874952         2.805398        -1.760133
 C         2.011164         1.956878        -1.269646
 C         2.960462         1.372955        -2.307588
 C         3.135645         0.191103        -1.387304
 O         3.908372        -0.917875        -1.727019
 C         1.739919         0.432922        -0.813094
 C         2.945977         0.778851         0.035787
 O         3.511147        -0.105952         1.107215
 C         2.802396         2.275839         0.073394
 H         0.186084         2.942662        -0.918073
 H         1.228380         3.805037        -1.869987
 H         0.292901         2.516038        -2.612399
 H         2.349226         1.096398        -3.171449
 H         3.716523         1.997663        -2.814409
 H         4.162073        -1.358806        -0.904196
 H         0.955452        -0.159899        -0.939822
 H         2.947842         0.058461         1.905635
 H         2.332411         2.626717         0.973420
 H         3.717963         3.013923         0.021660
