19
Iteration:  1152charge 0 multiplicity 1
 C         0.801898         2.733200        -1.755666
 C         1.979947         1.937953        -1.313896
 C         3.082515         1.495733        -2.267805
 C         3.154199         0.218583        -1.469244
 O         3.715306        -0.985558        -1.771792
 C         1.775882         0.395765        -0.846915
 C         2.998814         0.671200         0.098472
 O         3.520367         0.126557         1.302553
 C         2.834119         2.202224        -0.014827
 H         0.021059         2.713123        -1.021384
 H         1.140865         3.776346        -1.890876
 H         0.346957         2.464461        -2.749037
 H         2.849231         1.198416        -3.264763
 H         4.078786         2.133175        -2.172436
 H         4.390213        -1.149514        -1.075102
 H         0.921376        -0.173035        -0.803119
 H         3.250680        -0.813455         1.482085
 H         2.326084         2.813764         0.684017
 H         3.612700         2.856679        -0.225261
