19
Iteration:   710
 C         0.858112         2.765498        -1.631622
 C         1.970550         1.892715        -1.303066
 C         3.124284         1.313685        -2.343750
 C         3.128918         0.197406        -1.326715
 O         3.869901        -0.851868        -1.704536
 C         1.721876         0.523909        -0.854862
 C         3.030013         0.751619         0.056570
 O         3.481342        -0.060454         1.079981
 C         2.778274         2.281163        -0.005653
 H         0.183732         2.920784        -0.752245
 H         1.080057         3.791211        -2.094293
 H         0.110393         2.560387        -2.423817
 H         2.815089         0.762886        -3.288891
 H         4.132601         1.775488        -2.488678
 H         4.011682        -1.484182        -1.018274
 H         0.701545         0.004645        -0.660130
 H         2.708870        -0.358186         1.618659
 H         2.046603         2.698367         0.687999
 H         3.495770         3.144883        -0.066711
