19
Iteration:  3142charge 0 multiplicity 1
 C         0.920032         2.900637        -1.673309
 C         2.025313         1.922248        -1.418851
 C         3.059622         1.336219        -2.255019
 C         3.129732         0.193198        -1.280356
 O         3.913873        -0.844110        -1.680097
 C         1.589379         0.541922        -0.835048
 C         2.923154         0.668908         0.102107
 O         3.482886        -0.108176         1.032586
 C         2.783178         2.175083        -0.047899
 H         0.292884         2.922210        -0.711846
 H         1.250443         3.898180        -1.804606
 H         0.275063         2.571967        -2.487878
 H         2.589343         1.066458        -3.239210
 H         3.886236         1.928023        -2.643591
 H         4.396594        -1.247418        -0.971574
 H         0.773322        -0.194788        -0.747316
 H         3.356808         0.048031         1.990476
 H         2.272532         2.511681         0.788472
 H         3.634798         2.800701        -0.303564
