19
Iteration:  3673charge 0 multiplicity 1
 C         0.821463         2.695672        -1.779004
 C         2.067646         1.932555        -1.283402
 C         3.131219         1.472146        -2.239716
 C         3.115224         0.246451        -1.382633
 O         3.780990        -0.990864        -1.761738
 C         1.789690         0.498446        -0.835047
 C         2.938789         0.709297         0.076941
 O         3.375466         0.052068         1.151947
 C         2.837161         2.183291         0.030741
 H         0.198840         3.084795        -0.971098
 H         1.142161         3.726514        -2.274763
 H         0.414943         2.147958        -2.637591
 H         2.596600         1.311927        -3.247429
 H         3.927067         2.218060        -2.380261
 H         3.848395        -1.564574        -0.966571
 H         0.851094         0.066605        -0.435565
 H         4.339114        -0.113427         1.024207
 H         2.233524         2.320396         0.916536
 H         3.764028         2.896911         0.287798
