19
Iteration:  3497charge 0 multiplicity 1
 C         0.824475         2.815394        -1.734670
 C         2.041246         1.875934        -1.321437
 C         3.125793         1.432718        -2.300213
 C         3.168862         0.247691        -1.402730
 O         3.792674        -0.900900        -1.709332
 C         1.742709         0.444599        -0.777546
 C         2.902813         0.746320         0.130796
 O         3.400262        -0.167866         1.147694
 C         2.818850         2.274722        -0.054399
 H         0.263038         3.129084        -0.915235
 H         1.288282         3.702852        -2.195183
 H         0.035048         2.343291        -2.306585
 H         2.771503         1.240417        -3.305938
 H         4.004614         2.066537        -2.433332
 H         4.318165        -1.312446        -0.966434
 H         0.754839        -0.112385        -0.819026
 H         4.222788         0.226530         1.572961
 H         2.211194         2.827133         0.648655
 H         3.778161         2.861314        -0.156050
