19
Iteration:  1931charge 0 multiplicity 1
 C         0.863104         2.808303        -1.899847
 C         1.951728         1.960336        -1.221836
 C         3.123612         1.487925        -2.236681
 C         3.075164         0.247779        -1.448661
 O         3.702185        -1.032325        -1.674684
 C         1.711675         0.505905        -0.800452
 C         3.095024         0.721809         0.019466
 O         3.626276        -0.072513         1.049108
 C         2.765885         2.196690         0.130175
 H        -0.000567         2.677400        -1.235300
 H         1.010296         3.876557        -1.826632
 H         0.587844         2.296406        -2.789445
 H         2.668683         1.749381        -3.202927
 H         4.048001         2.044074        -2.320983
 H         4.286876        -1.124087        -0.853317
 H         0.817804        -0.249914        -0.449260
 H         3.031018        -0.234328         1.761193
 H         1.899970         2.427469         0.831670
 H         3.605901         2.993199         0.195580
