19
Iteration:  1995charge 0 multiplicity 1
 C         0.830117         2.977558        -1.645193
 C         1.992536         1.912708        -1.251728
 C         2.958884         1.450758        -2.404285
 C         3.145997         0.171970        -1.437305
 O         3.904253        -0.978801        -1.609332
 C         1.763586         0.442126        -0.923584
 C         2.979700         0.640483         0.017683
 O         3.501145        -0.002542         1.105221
 C         2.828707         2.130047         0.031512
 H         0.166218         3.129262        -0.743926
 H         1.248528         3.971084        -1.949401
 H         0.259589         2.683581        -2.578377
 H         2.401785         1.144463        -3.314234
 H         3.940313         2.053932        -2.619253
 H         4.359485        -1.329001        -0.785409
 H         0.861652        -0.366576        -0.739789
 H         2.864121         0.244764         1.769534
 H         2.098058         2.518268         0.757519
 H         3.567521         2.866229         0.233599
