19
Iteration:  4468
 C         0.901413         2.810961        -1.900692
 C         1.937143         1.880963        -1.232541
 C         3.122483         1.537980        -2.267423
 C         3.100640         0.251443        -1.445707
 O         3.865726        -0.905242        -1.464465
 C         1.770418         0.412972        -0.808305
 C         2.981702         0.643190         0.005832
 O         3.470305        -0.019634         1.117040
 C         2.678452         2.208428         0.072998
 H         0.144167         3.049631        -1.176889
 H         1.273398         3.854635        -2.049151
 H         0.522531         2.395752        -2.867821
 H         2.818880         1.188259        -3.364243
 H         3.869468         2.380785        -2.232746
 H         3.903809        -1.276294        -2.407034
 H         0.965144        -0.216233        -0.678565
 H         4.020605        -0.834738         0.900304
 H         1.885450         2.303231         0.894853
 H         3.551623         2.932879         0.082802
