19
Iteration:  3802
 C         0.801514         2.840030        -1.720015
 C         2.068348         1.954966        -1.331982
 C         3.096727         1.430865        -2.386066
 C         3.165862         0.216402        -1.401288
 O         3.836125        -0.955676        -1.689579
 C         1.832059         0.395724        -0.771217
 C         2.946888         0.755168         0.096274
 O         3.322492        -0.100613         1.147393
 C         2.848863         2.269064         0.046037
 H         0.194713         3.054422        -0.852082
 H         1.081666         3.733286        -2.383168
 H         0.076200         2.353639        -2.415642
 H         2.491757         1.292860        -3.339800
 H         4.037821         1.971575        -2.521372
 H         3.859268        -1.509691        -0.851788
 H         0.994080        -0.273423        -0.491698
 H         4.234265         0.245089         1.214114
 H         2.008672         2.566429         0.644038
 H         3.599163         3.044104        -0.091530
