19
Iteration:  1773
 C         0.867066         2.831361        -1.738562
 C         1.980904         1.978000        -1.336792
 C         3.121653         1.502512        -2.288738
 C         3.153138         0.212555        -1.467409
 O         3.665364        -1.083484        -1.605043
 C         1.708023         0.490299        -0.930758
 C         2.999297         0.683679         0.050953
 O         3.651622         0.034967         1.043117
 C         2.757205         2.149913         0.200752
 H        -0.094973         2.643175        -1.215478
 H         1.087169         3.885518        -1.919582
 H         0.487902         2.357775        -2.710867
 H         2.819251         1.490232        -3.345124
 H         4.115411         2.150232        -2.362489
 H         4.289705        -1.193358        -0.891379
 H         0.676781        -0.060764        -0.946991
 H         3.202433         0.252756         1.838155
 H         1.892819         2.229019         0.879004
 H         3.648458         2.765947         0.403189
