19
Iteration:   810charge 0 multiplicity 1
 C         0.851293         2.843862        -1.708993
 C         1.971347         1.920696        -1.362662
 C         3.133899         1.447328        -2.267791
 C         3.187965         0.258730        -1.319420
 O         3.745799        -1.012921        -1.543351
 C         1.714852         0.457242        -0.887778
 C         2.930068         0.711100         0.055408
 O         3.649930        -0.010744         1.017503
 C         2.681921         2.180597         0.014578
 H         0.057181         3.093139        -0.972589
 H         1.189180         3.886954        -2.088203
 H         0.275581         2.432445        -2.559146
 H         2.791908         1.055326        -3.232991
 H         3.818527         2.261597        -2.555265
 H         4.648667        -0.990643        -1.240788
 H         0.856018        -0.149445        -0.981912
 H         3.068226        -0.482117         1.668701
 H         1.906692         2.523837         0.732656
 H         3.644630         2.837723        -0.018610
