19
Iteration:  4344charge 0 multiplicity 1
 C         0.924243         2.776874        -1.831546
 C         1.985126         1.895428        -1.272530
 C         3.161077         1.469239        -2.302464
 C         3.153314         0.228003        -1.345210
 O         3.877774        -0.914352        -1.670437
 C         1.710661         0.464223        -0.778886
 C         2.942924         0.708078         0.128187
 O         3.451817        -0.052096         1.099596
 C         2.666278         2.182602         0.079946
 H         0.010387         2.906342        -1.181052
 H         1.281948         3.804589        -1.927668
 H         0.709235         2.451680        -2.848812
 H         2.760196         0.910033        -3.278750
 H         4.032872         2.111611        -2.595916
 H         3.847627        -1.306789        -2.599459
 H         0.836884        -0.121122        -0.730714
 H         3.577140         0.402608         1.983361
 H         1.894646         2.543420         0.753105
 H         3.494228         2.991521         0.055012
