19
Iteration:  3448
 C         0.905975         2.951264        -1.716629
 C         1.983633         2.004369        -1.271746
 C         2.966942         1.333254        -2.391696
 C         3.122687         0.201213        -1.425260
 O         3.998024        -0.964307        -1.644926
 C         1.749585         0.447447        -0.822889
 C         3.009208         0.724439         0.012323
 O         3.386859        -0.058916         1.150049
 C         2.692344         2.168004         0.062353
 H         0.065375         3.184822        -0.970587
 H         1.422717         3.894324        -1.839993
 H         0.341635         2.648135        -2.633051
 H         2.619320         0.915003        -3.315680
 H         3.806200         1.954789        -2.691977
 H         3.821965        -1.635221        -0.973525
 H         0.904368        -0.137921        -0.580831
 H         4.317095         0.133956         1.263761
 H         2.074429         2.540161         0.842730
 H         3.543868         2.839390         0.075588
