19
Iteration:  4903charge 0 multiplicity 1
 C         0.850761         2.874414        -1.778119
 C         1.895670         1.921063        -1.247063
 C         3.042776         1.522185        -2.314240
 C         3.228702         0.257559        -1.424155
 O         3.852678        -1.007379        -1.631837
 C         1.783035         0.392141        -0.782764
 C         3.018748         0.712614         0.014143
 O         3.494465        -0.041425         1.145935
 C         2.750785         2.226806        -0.028857
 H         0.124152         3.104591        -0.961865
 H         1.226205         3.781136        -2.198072
 H         0.398563         2.257182        -2.604087
 H         2.726184         1.149685        -3.266750
 H         3.757007         2.279712        -2.629752
 H         4.069539        -1.373188        -0.715534
 H         0.853272        -0.178388        -0.735413
 H         2.823826        -0.713094         1.477362
 H         2.214020         2.579036         0.848443
 H         3.653760         2.941772        -0.090875
