19
Iteration:  4262charge 0 multiplicity 1
 C         0.790629         2.912230        -1.747271
 C         1.975773         1.965830        -1.266462
 C         3.152685         1.317035        -2.390049
 C         3.257080         0.201422        -1.434543
 O         3.965480        -0.942147        -1.590387
 C         1.788505         0.449510        -0.847354
 C         2.952603         0.718008         0.090680
 O         3.371649         0.003373         1.173547
 C         2.709595         2.265995         0.033880
 H         0.187042         3.096794        -0.827321
 H         1.267186         3.954965        -2.025290
 H         0.059342         2.394443        -2.443470
 H         2.590915         1.038567        -3.332600
 H         4.028551         2.094666        -2.496278
 H         3.484389        -1.608540        -2.169801
 H         0.793695        -0.179662        -0.828663
 H         3.218147        -0.941798         1.057502
 H         2.054582         2.448102         0.905264
 H         3.649699         2.698936         0.188630
