19
Iteration:  4942
 C         0.949301         2.893536        -1.774055
 C         2.011156         1.962531        -1.279328
 C         3.016762         1.354012        -2.330380
 C         3.169114         0.252951        -1.338076
 O         3.975552        -0.883949        -1.561580
 C         1.582206         0.368456        -0.717784
 C         2.808422         0.647624         0.071407
 O         3.603043        -0.104097         0.898475
 C         2.692986         2.271056         0.002734
 H         0.126129         3.196844        -1.094419
 H         1.495154         3.798443        -2.205000
 H         0.292884         2.599101        -2.581135
 H         2.410659         1.026269        -3.250542
 H         3.988906         1.892760        -2.447985
 H         4.482568        -0.961872        -0.694554
 H         0.645569        -0.068829        -0.612519
 H         3.215995        -0.195190         1.772290
 H         1.945982         2.661935         0.749543
 H         3.626583         2.780807        -0.029879
