19
Iteration:   763
 C         0.948903         2.838007        -1.861550
 C         1.874931         1.876445        -1.268010
 C         2.977502         1.500951        -2.215234
 C         3.171303         0.222431        -1.369560
 O         3.799788        -0.968722        -1.669628
 C         1.725737         0.433948        -0.764885
 C         3.041487         0.673945        -0.013585
 O         3.562989         0.012576         1.068507
 C         2.752273         2.149143         0.037294
 H         0.158417         3.061966        -1.138420
 H         1.458946         3.788173        -1.946907
 H         0.406701         2.550530        -2.800079
 H         2.652087         1.422468        -3.308866
 H         3.909518         2.057773        -2.375655
 H         4.477534        -1.140862        -1.017161
 H         0.771683        -0.272841        -0.602150
 H         3.082301         0.299078         1.879551
 H         2.025670         2.148801         0.957267
 H         3.589045         2.967709         0.047343
