19
Iteration:  4771charge 0 multiplicity 1
 C         0.947626         2.897365        -1.764970
 C         1.921360         1.916527        -1.267576
 C         3.025720         1.460433        -2.220598
 C         3.168485         0.140413        -1.394287
 O         3.980405        -0.916884        -1.567235
 C         1.746973         0.343487        -0.808381
 C         2.944311         0.709440         0.039836
 O         3.493130        -0.030302         1.007436
 C         2.702610         2.294727         0.008116
 H         0.292437         3.340220        -1.001533
 H         1.419889         3.746548        -2.167525
 H         0.354957         2.467339        -2.580329
 H         2.641003         1.267821        -3.196434
 H         3.817246         2.173532        -2.297715
 H         3.425080        -1.758456        -1.514927
 H         0.800960        -0.243172        -0.604106
 H         2.926684        -0.772665         1.363450
 H         1.984706         2.675818         0.750797
 H         3.528510         3.039001        -0.280722
