19
Iteration:   401charge 0 multiplicity 1
 C         0.794156         2.845012        -1.679476
 C         1.959705         1.931154        -1.359903
 C         3.106841         1.522421        -2.329965
 C         3.210264         0.216248        -1.442343
 O         3.760935        -1.077564        -1.605543
 C         1.830357         0.429660        -0.821502
 C         2.981730         0.771192         0.074962
 O         3.490971        -0.013334         1.051130
 C         2.770917         2.244217         0.043796
 H         0.193159         2.911435        -0.709325
 H         1.187272         3.859663        -1.924368
 H         0.223971         2.294036        -2.499509
 H         2.599670         1.176915        -3.301239
 H         3.966357         2.227778        -2.656357
 H         4.774999        -1.066544        -1.521870
 H         0.866754        -0.249084        -0.507491
 H         2.756962        -0.429646         1.574414
 H         2.085664         2.406063         0.838281
 H         3.708580         2.732987         0.362823
