19
Iteration:  3519charge 0 multiplicity 1
 C         0.807408         2.827757        -1.795616
 C         2.028884         2.015316        -1.281258
 C         3.111413         1.452821        -2.271028
 C         3.130804         0.194640        -1.382127
 O         3.786246        -0.996787        -1.703096
 C         1.758567         0.500357        -0.833654
 C         2.981560         0.716923         0.064115
 O         3.429490        -0.068411         1.078509
 C         2.824224         2.190603         0.085627
 H         0.046768         2.863584        -1.078909
 H         0.977421         3.795771        -2.288812
 H         0.414134         2.052081        -2.414126
 H         2.704121         1.221550        -3.246588
 H         4.036685         1.942116        -2.502161
 H         4.170909        -1.396616        -0.924856
 H         0.815571        -0.053268        -0.666152
 H         3.942804         0.493952         1.640628
 H         2.336795         2.321232         1.011240
 H         3.624693         2.947957         0.041542
