19
Iteration:  1852charge 0 multiplicity 1
 C         0.881510         2.910360        -1.669680
 C         1.965241         2.011024        -1.278006
 C         2.898924         1.392751        -2.346971
 C         3.086271         0.163166        -1.428831
 O         4.047615        -0.929054        -1.648819
 C         1.707705         0.434892        -0.779937
 C         2.965060         0.670232        -0.001221
 O         3.396710        -0.053659         1.022170
 C         2.881661         2.187853         0.038648
 H         0.475244         3.311940        -0.727592
 H         1.534449         3.525916        -2.259463
 H         0.274086         2.447537        -2.434803
 H         2.318603         0.979549        -3.152415
 H         3.747241         2.157361        -2.484152
 H         4.463386        -1.157953        -0.781230
 H         0.921725        -0.180634        -0.612877
 H         2.759071        -0.109927         1.701582
 H         2.251478         2.553791         0.903097
 H         3.752468         2.878373         0.072739
