19
Iteration:  2886
 C         0.971420         2.873469        -1.767594
 C         1.953646         1.966929        -1.184885
 C         3.006469         1.502824        -2.192567
 C         3.127169         0.215076        -1.439101
 O         3.679040        -1.101714        -1.694758
 C         1.768139         0.378087        -0.824356
 C         2.983447         0.654304        -0.012655
 O         3.506167         0.096110         1.121859
 C         2.789123         2.221715         0.072880
 H         0.248074         3.298508        -1.086341
 H         1.582175         3.791582        -2.186630
 H         0.468380         2.355043        -2.614222
 H         2.665214         1.273076        -3.201168
 H         3.871117         2.002392        -2.511654
 H         4.673749        -1.071810        -1.629117
 H         0.851176        -0.087590        -0.628202
 H         3.907713        -0.743345         0.946364
 H         2.149154         2.390551         0.929175
 H         3.655457         3.058933        -0.049312
