19
Iteration:  2874
 C         0.916996         2.907239        -1.750362
 C         1.966148         1.919385        -1.200754
 C         3.070102         1.425229        -2.322587
 C         3.105004         0.184544        -1.453532
 O         3.684423        -1.003374        -1.728991
 C         1.697910         0.423136        -0.817354
 C         3.004114         0.702037         0.046438
 O         3.486671         0.136838         1.187160
 C         2.863371         2.107760         0.100364
 H         0.148345         3.207811        -1.036246
 H         1.392270         3.838369        -2.261189
 H         0.381084         2.404648        -2.562673
 H         2.537304         1.279151        -3.243240
 H         3.945436         2.011709        -2.204446
 H         4.609858        -0.981221        -1.500295
 H         1.006885        -0.423203        -0.942039
 H         3.781615        -0.800578         1.010082
 H         2.302452         2.599083         0.879507
 H         3.902259         2.628963        -0.073753
