19
Iteration:  3980
 C         0.904182         2.778400        -1.740844
 C         1.983180         1.950900        -1.288583
 C         3.063586         1.466094        -2.289446
 C         3.182022         0.192940        -1.420235
 O         3.740803        -0.944512        -1.707488
 C         1.816670         0.484030        -0.824380
 C         2.979011         0.721554         0.114451
 O         3.392973        -0.110890         1.168313
 C         2.806672         2.245517        -0.002787
 H         0.011048         3.009531        -1.089361
 H         1.251705         3.682273        -2.316809
 H         0.504261         2.032186        -2.457471
 H         2.397810         1.145042        -3.169497
 H         3.951514         2.057066        -2.622245
 H         4.269849        -1.192554        -0.891431
 H         1.051758        -0.315353        -0.792298
 H         4.003771         0.573926         1.605114
 H         2.181485         2.822999         0.676060
 H         3.645872         2.920579        -0.274599
