19
Iteration:  3835
 C         0.840482         2.782219        -1.832599
 C         2.021543         1.900810        -1.248536
 C         3.082837         1.490466        -2.252693
 C         3.172987         0.198484        -1.366667
 O         3.725572        -0.991290        -1.750227
 C         1.782759         0.402976        -0.943164
 C         3.005134         0.742492         0.100889
 O         3.417052        -0.024961         1.194349
 C         2.816603         2.297754         0.101137
 H         0.141219         3.120977        -1.079292
 H         1.276718         3.784630        -2.182059
 H         0.387109         2.191443        -2.639094
 H         2.565001         1.312088        -3.259159
 H         3.986107         2.052867        -2.487713
 H         3.891323        -1.499324        -0.918403
 H         0.969569        -0.224373        -0.658029
 H         4.425381        -0.048760         1.122280
 H         2.186580         2.578135         0.931706
 H         3.454286         3.135314        -0.019083
