19
Iteration:   673charge 0 multiplicity 1
 C         0.797993         2.886597        -1.728843
 C         1.890356         1.897175        -1.333109
 C         2.967202         1.574883        -2.356699
 C         3.224454         0.270129        -1.372796
 O         3.847766        -1.024422        -1.515612
 C         1.754041         0.435829        -0.888731
 C         2.948431         0.693850         0.051346
 O         3.540852        -0.099822         1.072656
 C         2.869639         2.182808        -0.013520
 H         0.160627         3.047354        -0.894639
 H         1.336357         3.714139        -1.979811
 H         0.256737         2.450656        -2.559991
 H         2.597732         1.272471        -3.371276
 H         3.840385         2.238753        -2.599003
 H         4.489131        -1.181368        -0.809639
 H         0.876298        -0.137525        -0.954612
 H         2.999490        -0.111120         1.862493
 H         2.232142         2.563802         0.873917
 H         3.809703         2.757784        -0.156966
