19
Iteration:  3888charge 0 multiplicity 1
 C         0.919689         2.971704        -1.793946
 C         1.967714         1.935462        -1.279759
 C         3.000283         1.374464        -2.327394
 C         3.117978         0.186724        -1.374022
 O         3.898668        -0.979813        -1.636956
 C         1.740323         0.429796        -0.846596
 C         2.995408         0.741872         0.064756
 O         3.480239        -0.067143         1.103171
 C         2.702896         2.211632         0.088424
 H         0.006988         2.959562        -1.266138
 H         1.302230         3.960596        -1.979848
 H         0.577909         2.492491        -2.695905
 H         2.316952         0.994556        -3.141689
 H         3.860150         2.006133        -2.607057
 H         3.946901        -1.491072        -0.803800
 H         0.873913        -0.138137        -0.597870
 H         4.424695         0.216667         0.989365
 H         2.002888         2.476028         0.972535
 H         3.533361         2.979209        -0.088530
