19
Iteration:  1528
 C         0.788072         2.874361        -1.657415
 C         1.965066         1.909813        -1.345797
 C         3.000657         1.417229        -2.362124
 C         3.126769         0.237577        -1.371871
 O         3.935259        -0.884385        -1.670550
 C         1.736935         0.435482        -0.903916
 C         3.000565         0.724754         0.136684
 O         3.386080        -0.131780         1.246727
 C         2.884413         2.235597        -0.060085
 H         0.277871         3.278810        -0.736114
 H         1.276330         3.809611        -2.103242
 H         0.069424         2.579218        -2.408705
 H         2.658515         0.761904        -3.218182
 H         3.840159         2.110671        -2.566954
 H         3.586325        -1.716962        -1.202028
 H         0.808672        -0.309782        -0.943579
 H         4.380815        -0.164022         1.078496
 H         2.315370         2.980738         0.536597
 H         3.852955         2.837768        -0.256901
