19
Iteration:   884
 C         0.882183         2.793288        -1.760570
 C         1.946416         1.904551        -1.314288
 C         3.023904         1.318442        -2.356144
 C         3.068640         0.226505        -1.320860
 O         3.930539        -0.827037        -1.770705
 C         1.740795         0.462718        -0.771508
 C         2.961313         0.737886         0.124177
 O         3.486402        -0.076453         1.160408
 C         2.838440         2.266358        -0.003003
 H         0.181326         3.068569        -0.985410
 H         1.285016         3.776553        -1.949757
 H         0.294326         2.441537        -2.611907
 H         2.669238         0.990430        -3.410481
 H         4.051151         1.771181        -2.345739
 H         3.862191        -1.681281        -1.230549
 H         0.755827        -0.163486        -0.812211
 H         3.023762         0.188861         1.942146
 H         2.115494         2.675524         0.742744
 H         3.796601         2.801810        -0.133783
