19
Iteration:  4416
 C         0.821241         2.805705        -1.655818
 C         2.049201         1.868685        -1.413719
 C         3.198706         1.409241        -2.353582
 C         3.170007         0.243893        -1.362553
 O         3.978954        -0.833341        -1.554280
 C         1.730163         0.451034        -0.829080
 C         2.923066         0.764400         0.060108
 O         3.338667        -0.052926         1.189816
 C         2.679579         2.202587        -0.029711
 H         0.247233         3.087316        -0.785369
 H         1.171832         3.818608        -2.003471
 H         0.366308         2.346867        -2.522888
 H         2.763531         1.092632        -3.291079
 H         4.020635         2.144105        -2.629981
 H         3.460847        -1.507381        -2.084241
 H         0.923235        -0.188576        -0.829964
 H         3.710298        -0.867295         0.686072
 H         1.983391         2.498437         0.829948
 H         3.650125         2.745065         0.104444
