19
Iteration:  4447charge 0 multiplicity 1
 C         0.776781         2.858838        -1.819036
 C         1.958153         1.962289        -1.313894
 C         3.087137         1.541901        -2.255610
 C         3.203451         0.223490        -1.376635
 O         3.940059        -0.965101        -1.439228
 C         1.757533         0.375063        -0.901171
 C         2.949915         0.713226         0.045798
 O         3.445441        -0.054887         1.121199
 C         2.758749         2.220383         0.057164
 H        -0.137232         3.124380        -1.310184
 H         1.231670         3.767874        -2.317042
 H         0.442080         2.310885        -2.734599
 H         2.372867         1.308193        -3.162832
 H         3.883898         2.348413        -2.488411
 H         4.005554        -1.296615        -2.330517
 H         0.950371        -0.277990        -0.900739
 H         3.368164        -0.907936         0.722520
 H         2.237958         2.502241         1.060679
 H         3.820846         2.629727        -0.052393
