19
Iteration:  1002
 C         0.825458         2.727353        -1.823581
 C         1.982018         1.936034        -1.273172
 C         3.056766         1.527979        -2.306305
 C         3.152572         0.272160        -1.406033
 O         3.773849        -1.059526        -1.788418
 C         1.857172         0.447895        -0.729539
 C         3.049201         0.763460         0.129649
 O         3.467282         0.031099         1.194759
 C         2.795908         2.227819        -0.010036
 H         0.027574         2.838023        -1.080377
 H         1.084677         3.767311        -1.873359
 H         0.323526         2.451731        -2.800697
 H         2.647960         1.079138        -3.186781
 H         3.838005         2.208183        -2.470016
 H         4.330536        -1.450598        -1.019237
 H         0.919178        -0.153173        -0.621354
 H         2.764012        -0.609951         1.496464
 H         2.072708         2.613029         0.751595
 H         3.750207         2.809961        -0.054839
