19
Iteration:   938charge 0 multiplicity 1
 C         0.898113         2.910657        -1.749147
 C         1.917033         1.925339        -1.329877
 C         3.119699         1.447928        -2.342779
 C         3.151020         0.222792        -1.384063
 O         3.737384        -0.988233        -1.550886
 C         1.786328         0.387975        -0.851070
 C         2.982411         0.740676         0.090894
 O         3.678535        -0.078238         1.055486
 C         2.592847         2.236567         0.009082
 H         0.354793         3.124969        -0.824303
 H         1.414030         3.799649        -2.040661
 H         0.239178         2.501990        -2.538251
 H         2.610175         1.000582        -3.225358
 H         4.043179         1.931794        -2.575309
 H         4.631503        -0.801381        -1.096286
 H         0.819679        -0.205873        -0.839452
 H         2.980569        -0.292152         1.671870
 H         1.792847         2.542159         0.698250
 H         3.334872         2.922419        -0.005066
