19
Iteration:  4650
 C         0.987851         2.884223        -1.822503
 C         2.014908         1.917330        -1.291299
 C         3.091060         1.391098        -2.288749
 C         3.163978         0.268457        -1.365850
 O         3.755213        -0.917799        -1.589900
 C         1.753477         0.386826        -0.849674
 C         2.840902         0.705256         0.094709
 O         3.633154        -0.045566         1.063145
 C         2.613695         2.174734         0.051106
 H         0.222629         3.016964        -1.006249
 H         1.258869         3.912477        -1.842314
 H         0.518544         2.693824        -2.801963
 H         2.698433         1.094685        -3.252297
 H         3.836016         2.218016        -2.564620
 H         4.679140        -0.844646        -1.327168
 H         1.074911        -0.431815        -0.790938
 H         2.977773        -0.602884         1.492737
 H         1.784239         2.511776         0.726101
 H         3.388111         3.035120         0.080536
