19
Iteration:  3846charge 0 multiplicity 1
 C         0.910452         2.782016        -1.811839
 C         1.967669         1.984537        -1.261906
 C         3.118925         1.456771        -2.238269
 C         3.141921         0.254496        -1.436451
 O         3.747539        -0.997037        -1.771156
 C         1.811100         0.387091        -0.746261
 C         2.919399         0.746298         0.138886
 O         3.462942        -0.022014         1.131152
 C         2.719728         2.253436         0.022237
 H         0.069532         2.962447        -1.156935
 H         1.410815         3.727523        -2.210443
 H         0.452258         2.337889        -2.706545
 H         2.759892         1.304393        -3.309604
 H         4.021750         2.058089        -2.127662
 H         3.856663        -1.549540        -0.942935
 H         1.015881        -0.316351        -0.616265
 H         4.442030        -0.022320         1.284998
 H         2.058018         2.754942         0.704156
 H         3.705956         2.601196        -0.059539
