19
Iteration:  2133
 C         0.874021         2.924851        -1.653875
 C         1.937716         1.971419        -1.265149
 C         3.058048         1.422000        -2.325588
 C         3.113124         0.219753        -1.378201
 O         3.785612        -0.965126        -1.634058
 C         1.775587         0.387409        -0.936491
 C         2.909630         0.683726         0.005030
 O         3.622064         0.021319         1.089515
 C         2.782024         2.131243         0.015198
 H         0.108311         2.896061        -0.904031
 H         1.248835         3.911494        -1.815664
 H         0.570237         2.725679        -2.681770
 H         2.604208         1.065499        -3.246503
 H         4.002303         1.890502        -2.596115
 H         4.035895        -1.210938        -0.753756
 H         0.818353        -0.267949        -1.044506
 H         3.075437         0.031892         1.902222
 H         2.126109         2.349983         0.949056
 H         3.729836         2.752179        -0.016587
