19
Iteration:  4417
 C         0.823427         2.800354        -1.659179
 C         2.045239         1.871158        -1.421860
 C         3.189845         1.403370        -2.357054
 C         3.185598         0.253480        -1.359002
 O         3.977997        -0.835695        -1.551868
 C         1.724287         0.462802        -0.829586
 C         2.919082         0.759388         0.062393
 O         3.346072        -0.057664         1.190443
 C         2.681284         2.203603        -0.024877
 H         0.232875         3.101744        -0.788155
 H         1.162667         3.811570        -2.003048
 H         0.363207         2.345855        -2.517838
 H         2.747820         1.142172        -3.265721
 H         4.033201         2.104054        -2.580618
 H         3.476108        -1.481329        -2.085345
 H         0.910899        -0.185267        -0.838405
 H         3.668452        -0.863005         0.674432
 H         2.003849         2.481623         0.808547
 H         3.634167         2.722304         0.078682
