19
Iteration:  4363
 C         0.860208         2.879669        -1.847420
 C         1.990016         1.913495        -1.316513
 C         3.018371         1.453597        -2.289046
 C         3.236280         0.265790        -1.412942
 O         3.891594        -0.883183        -1.601068
 C         1.794873         0.333588        -0.848251
 C         2.955538         0.673253         0.062097
 O         3.394536        -0.099865         1.220241
 C         2.752855         2.207625         0.048845
 H        -0.005033         2.799285        -1.130850
 H         1.298370         3.900230        -1.978749
 H         0.510828         2.608544        -2.846015
 H         2.668516         1.392657        -3.299676
 H         4.012352         1.941523        -2.324581
 H         3.423227        -1.347665        -2.360683
 H         1.055583        -0.392865        -0.759765
 H         3.729973         0.620527         1.817590
 H         2.119305         2.502942         0.855394
 H         3.553093         2.901574        -0.014539
