19
Iteration:  2673
 C         0.800036         2.882778        -1.660815
 C         2.022856         2.044018        -1.287954
 C         3.017483         1.398459        -2.329175
 C         3.098841         0.175948        -1.451955
 O         3.787029        -1.095809        -1.625396
 C         1.813438         0.476192        -0.812376
 C         3.007026         0.714620         0.029099
 O         3.433194         0.007012         1.083705
 C         2.888704         2.200264         0.001827
 H         0.234400         2.893137        -0.680547
 H         0.999590         3.929513        -1.803054
 H         0.231402         2.385411        -2.514174
 H         2.803975         1.365120        -3.338522
 H         3.944031         1.938369        -2.411212
 H         4.768635        -0.924248        -1.510975
 H         0.985123        -0.250405        -0.652973
 H         2.731768        -0.106201         1.728898
 H         2.363229         2.580581         0.921091
 H         3.870695         2.824805        -0.321832
