19
Iteration:  1768charge 0 multiplicity 1
 C         0.863946         2.790641        -1.763315
 C         2.032806         1.992647        -1.376962
 C         3.118150         1.543347        -2.266716
 C         3.156332         0.237279        -1.445892
 O         3.631245        -1.050445        -1.605477
 C         1.710043         0.489433        -0.886425
 C         2.999101         0.654037         0.036377
 O         3.680751        -0.001334         1.072795
 C         2.716944         2.125939         0.161406
 H        -0.044632         2.881883        -1.140996
 H         0.971745         3.886110        -1.868875
 H         0.470874         2.476130        -2.701750
 H         2.804812         1.254483        -3.308183
 H         3.987981         2.050946        -2.503663
 H         4.330896        -1.082548        -0.892829
 H         0.804360        -0.064817        -1.154905
 H         3.249935         0.253279         1.956763
 H         1.893120         2.380930         0.843038
 H         3.615474         2.714608         0.404698
