19
Iteration:  2479charge 0 multiplicity 1
 C         0.844054         2.964866        -1.622753
 C         1.968485         1.930371        -1.414618
 C         3.080398         1.343891        -2.379416
 C         3.179410         0.213248        -1.381498
 O         3.718475        -0.968844        -1.718794
 C         1.769806         0.385989        -0.808593
 C         2.969427         0.747654         0.132977
 O         3.517275        -0.036871         1.195157
 C         2.873636         2.310205        -0.023693
 H         0.137340         2.537383        -0.901708
 H         0.936313         4.005360        -1.609610
 H         0.383504         2.710139        -2.536885
 H         2.776164         0.923330        -3.399246
 H         3.876139         2.114955        -2.515228
 H         4.403932        -1.214273        -1.042728
 H         0.850071        -0.268869        -0.766241
 H         3.042800        -0.848633         1.353851
 H         2.074592         2.608856         0.610364
 H         3.766642         2.702042        -0.226346
