19
Iteration:  2670charge 0 multiplicity 1
 C         0.787642         2.878219        -1.643597
 C         2.032778         2.030820        -1.261253
 C         3.032710         1.395631        -2.323316
 C         3.115447         0.170036        -1.463258
 O         3.785836        -1.092119        -1.605485
 C         1.783393         0.501975        -0.821477
 C         3.018249         0.697953         0.012053
 O         3.423209         0.021375         1.066251
 C         2.916727         2.211226         0.010305
 H         0.196625         2.839344        -0.758976
 H         1.007263         3.914441        -1.838874
 H         0.273122         2.419816        -2.502227
 H         2.716893         1.270121        -3.438888
 H         3.989808         2.051373        -2.410044
 H         4.723199        -0.901127        -1.572966
 H         0.968910        -0.321181        -0.648880
 H         2.718498        -0.120641         1.766855
 H         2.258114         2.558936         0.888957
 H         3.798340         2.714951        -0.355170
