19
Iteration:  2725
 C         0.889355         2.983021        -1.889669
 C         1.967899         1.951045        -1.222441
 C         3.005598         1.411063        -2.267246
 C         3.124759         0.209994        -1.376157
 O         3.794710        -0.962375        -1.726194
 C         1.728087         0.355484        -0.749502
 C         3.014596         0.659501         0.069649
 O         3.620818        -0.018254         1.068252
 C         2.810582         2.186001         0.117349
 H         0.227622         3.462606        -1.200415
 H         1.429671         3.803706        -2.294335
 H         0.265874         2.466922        -2.666460
 H         2.440443         1.075855        -3.232988
 H         3.751160         2.193081        -2.740085
 H         3.467646        -1.665648        -1.116975
 H         0.880175        -0.423899        -0.688173
 H         3.057697         0.027450         1.870881
 H         2.049285         2.677793         0.801694
 H         3.544198         2.923838         0.225082
