19
Iteration:  3444
 C         0.901624         2.942093        -1.708447
 C         1.981359         1.969953        -1.300841
 C         2.978298         1.343862        -2.385965
 C         3.148478         0.185120        -1.423775
 O         3.978620        -0.939811        -1.652696
 C         1.725058         0.477315        -0.812579
 C         2.962028         0.715303         0.034251
 O         3.411040        -0.067297         1.145629
 C         2.685069         2.188153         0.049113
 H         0.171122         3.126395        -0.917175
 H         1.503288         3.906367        -1.813796
 H         0.518647         2.566309        -2.693023
 H         2.570650         0.988300        -3.378824
 H         3.922985         1.962059        -2.689784
 H         3.738811        -1.629495        -0.992244
 H         1.014447        -0.322536        -0.457416
 H         4.375647         0.113615         1.334919
 H         1.984887         2.676337         0.849599
 H         3.618116         2.791917         0.064484
