19
Iteration:  4589charge 0 multiplicity 1
 C         0.880525         2.810093        -1.752215
 C         1.962242         1.927387        -1.285996
 C         3.106362         1.420302        -2.347320
 C         3.148679         0.239135        -1.429564
 O         3.897254        -0.849893        -1.616726
 C         1.775475         0.492173        -0.858957
 C         2.882614         0.693821         0.091000
 O         3.415304        -0.155097         1.096222
 C         2.800028         2.193421         0.025816
 H         0.273787         2.987508        -0.876724
 H         1.325614         3.737928        -2.189320
 H         0.207364         2.263628        -2.434400
 H         2.673193         1.148803        -3.338922
 H         3.906696         2.078642        -2.334944
 H         4.304226        -1.037532        -0.774213
 H         0.827917        -0.154106        -0.873337
 H         3.220023         0.217228         1.947896
 H         2.124260         2.721561         0.704802
 H         3.705848         2.723762        -0.203637
