19
Iteration:  2600
 C         0.953533         2.921686        -1.799838
 C         1.922359         1.908494        -1.273299
 C         3.018414         1.405570        -2.182836
 C         3.082146         0.165759        -1.423511
 O         3.761563        -0.996731        -1.737139
 C         1.716725         0.478671        -0.790850
 C         3.034852         0.673994         0.022718
 O         3.626374         0.027949         1.068791
 C         2.786382         2.184321         0.065861
 H         0.187038         3.032395        -1.016502
 H         1.389528         3.919231        -2.101722
 H         0.520123         2.485621        -2.674906
 H         2.560241         1.315287        -3.238273
 H         3.826470         2.177750        -2.424019
 H         3.882687        -1.464538        -0.880687
 H         0.945138        -0.185609        -0.416439
 H         2.913722         0.105641         1.773500
 H         1.963202         2.415936         0.835141
 H         3.678952         2.761830         0.026854
