19
Iteration:  3409charge 0 multiplicity 1
 C         0.833532         2.867591        -1.786124
 C         1.901376         1.940776        -1.297358
 C         3.122540         1.424263        -2.195133
 C         3.149544         0.213698        -1.355679
 O         3.815795        -0.941594        -1.703573
 C         1.731762         0.458197        -0.841413
 C         2.993903         0.685983         0.062982
 O         3.467080        -0.043988         1.132563
 C         2.764626         2.239544         0.015224
 H        -0.103040         2.936887        -1.233407
 H         1.300945         3.879270        -2.037822
 H         0.598880         2.458208        -2.816677
 H         2.760412         1.207928        -3.281514
 H         4.097993         2.005499        -2.167770
 H         3.774690        -1.575886        -0.971161
 H         0.912666        -0.370375        -0.718155
 H         4.427802        -0.272455         1.044562
 H         2.210040         2.703829         0.890658
 H         3.758512         2.766332        -0.183243
