19
Iteration:  2004
 C         0.844194         2.973871        -1.602839
 C         1.962225         1.985105        -1.294460
 C         2.951337         1.407031        -2.334639
 C         3.164888         0.134129        -1.437048
 O         3.967115        -1.029195        -1.627231
 C         1.761642         0.425770        -0.920282
 C         3.002889         0.674854        -0.038168
 O         3.460988         0.000380         1.084050
 C         2.762218         2.199168         0.024295
 H         0.326009         3.273655        -0.641914
 H         1.461484         3.867413        -1.868694
 H         0.066855         2.523677        -2.351197
 H         2.553503         1.215281        -3.319340
 H         3.881182         2.082587        -2.480924
 H         4.282103        -1.481254        -0.793850
 H         0.822967        -0.225681        -0.650889
 H         2.848274         0.170247         1.797401
 H         2.102882         2.385490         0.933898
 H         3.659017         2.972998        -0.090322
