19
Iteration:   420charge 0 multiplicity 1
 C         0.807802         2.806939        -1.734848
 C         2.067262         1.971608        -1.275067
 C         3.066097         1.384727        -2.354965
 C         3.213881         0.272592        -1.355361
 O         3.693673        -0.941990        -1.670189
 C         1.768582         0.489672        -0.920616
 C         2.949980         0.696026         0.118025
 O         3.599857        -0.084182         1.121397
 C         2.735358         2.224410         0.075163
 H         0.062483         2.865964        -0.898914
 H         1.027305         3.859020        -1.970066
 H         0.370567         2.237862        -2.572346
 H         2.577567         1.098587        -3.269951
 H         3.903847         1.873618        -2.597604
 H         4.672737        -0.957643        -1.417369
 H         0.956243        -0.179182        -1.261524
 H         3.086883        -0.103367         1.989015
 H         2.000467         2.647654         0.780957
 H         3.580881         2.851257        -0.011617
