19
Iteration:  4206charge 0 multiplicity 1
 C         0.806151         2.894894        -1.865552
 C         1.987342         1.943377        -1.301528
 C         3.046589         1.401175        -2.365500
 C         3.187686         0.268378        -1.328109
 O         3.880309        -0.933957        -1.560476
 C         1.760044         0.370818        -0.802140
 C         2.930167         0.708382         0.115727
 O         3.411096        -0.117019         1.126430
 C         2.828188         2.236461         0.038247
 H        -0.010866         3.079499        -1.128063
 H         1.250423         3.983363        -1.944527
 H         0.489994         2.597984        -2.934708
 H         2.606196         1.279043        -3.374321
 H         4.074147         2.037052        -2.403971
 H         3.529694        -1.302977        -2.364516
 H         0.981331        -0.329750        -0.882401
 H         4.133835         0.274767         1.597028
 H         2.198614         2.511382         0.909479
 H         3.767590         2.725140         0.204326
