19
Iteration:  2367
 C         0.779198         2.825035        -1.692046
 C         2.016961         2.029070        -1.318397
 C         2.995028         1.486186        -2.373612
 C         3.128902         0.178352        -1.461667
 O         3.879368        -1.031310        -1.609756
 C         1.762019         0.504998        -0.807115
 C         3.017708         0.687255         0.060995
 O         3.498597        -0.072123         1.064503
 C         2.824979         2.199268         0.071840
 H         0.319329         3.373055        -0.859413
 H         1.211488         3.550303        -2.355618
 H         0.201339         2.413784        -2.557598
 H         2.639495         1.568202        -3.377432
 H         3.962458         2.101796        -2.560867
 H         3.768401        -1.588073        -0.837905
 H         0.807315        -0.104607        -0.830018
 H         2.956936         0.077251         1.839004
 H         2.144469         2.560432         0.980842
 H         3.890415         2.703165         0.135345
