19
Iteration:   835
 C         0.805468         2.796235        -1.771166
 C         1.972570         1.913977        -1.258718
 C         3.072010         1.525446        -2.318743
 C         3.111674         0.206001        -1.514794
 O         3.783659        -1.042797        -1.578770
 C         1.840974         0.364614        -0.824960
 C         3.076918         0.738839         0.007067
 O         3.476752        -0.009816         1.110401
 C         2.831562         2.245440         0.073730
 H        -0.001608         3.108866        -1.041599
 H         1.146862         3.877530        -1.993904
 H         0.206976         2.481510        -2.660370
 H         2.644331         1.550589        -3.277541
 H         3.803062         2.330438        -2.452177
 H         4.275340        -1.016849        -0.777074
 H         1.030011        -0.316353        -0.756567
 H         2.678704        -0.234830         1.679036
 H         2.180739         2.523055         0.849229
 H         3.582273         2.969958        -0.169460
