19
Iteration:  4561
 C         0.802528         2.857034        -1.774344
 C         1.993373         2.014882        -1.353854
 C         3.076738         1.337198        -2.297601
 C         3.228061         0.210737        -1.387276
 O         3.934591        -0.910829        -1.699090
 C         1.809850         0.502893        -0.830371
 C         2.921575         0.742387         0.070272
 O         3.288921        -0.205370         1.156360
 C         2.781041         2.267056         0.045093
 H         0.173190         2.820218        -0.804782
 H         0.956416         3.918878        -2.021033
 H         0.333871         2.241900        -2.540317
 H         2.708418         0.951807        -3.266646
 H         3.911319         2.172619        -2.417185
 H         4.463732        -1.178236        -0.971849
 H         0.974215        -0.175748        -0.701813
 H         3.992424         0.243895         1.665079
 H         2.034151         2.745973         0.733295
 H         3.752559         2.854191        -0.042154
