19
Iteration:  4059
 C         0.836699         2.916877        -1.745438
 C         1.954177         1.979528        -1.345261
 C         3.093152         1.410857        -2.334799
 C         3.168961         0.240447        -1.305539
 O         3.832463        -1.007341        -1.584997
 C         1.737121         0.369070        -0.857261
 C         2.910282         0.717914         0.096304
 O         3.490991         0.040808         1.189637
 C         2.719532         2.172063         0.004934
 H        -0.045513         2.967289        -1.030399
 H         1.341971         3.867201        -2.000694
 H         0.581966         2.515118        -2.781846
 H         2.832408         1.250560        -3.351871
 H         4.109350         1.920279        -2.456294
 H         4.544907        -0.933753        -2.282051
 H         0.849313        -0.244826        -0.748120
 H         3.864917        -0.766712         0.679217
 H         2.206740         2.561751         0.829501
 H         3.730524         2.577549        -0.052948
