19
Iteration:  3974charge 0 multiplicity 1
 C         0.879186         2.746304        -1.713125
 C         2.042359         1.937782        -1.310494
 C         3.085559         1.441253        -2.296861
 C         3.141230         0.244461        -1.440283
 O         3.767714        -0.918996        -1.701855
 C         1.783823         0.446816        -0.788592
 C         2.963664         0.711226         0.011131
 O         3.396119        -0.107458         1.207166
 C         2.812976         2.249874        -0.002110
 H         0.123639         3.107061        -1.026504
 H         1.195296         3.618791        -2.250983
 H         0.486422         2.095148        -2.523625
 H         2.431058         1.258188        -3.121601
 H         4.024996         1.900800        -2.603869
 H         4.190568        -1.168926        -0.854568
 H         0.862087        -0.091220        -0.731679
 H         3.871638         0.621892         1.562340
 H         2.206981         2.807772         0.747578
 H         3.715383         2.862151        -0.181069
