19
Iteration:  4669
 C         0.868369         2.872964        -1.834716
 C         1.908332         1.933377        -1.237326
 C         3.063039         1.521542        -2.281424
 C         3.200109         0.215830        -1.307280
 O         3.822573        -1.047847        -1.635205
 C         1.770999         0.359867        -0.900680
 C         2.914194         0.754021         0.077270
 O         3.532637        -0.025913         1.078456
 C         2.736701         2.174857         0.097694
 H        -0.082324         2.985045        -1.281396
 H         1.367324         3.872842        -1.896723
 H         0.667656         2.652237        -2.864752
 H         2.691206         1.275861        -3.270530
 H         3.962854         2.045770        -2.537426
 H         4.755226        -1.000925        -1.730553
 H         0.885006        -0.102822        -1.118860
 H         2.974443        -0.128653         1.841736
 H         2.120688         2.701268         0.897349
 H         3.672106         2.809622         0.128735
