19
Iteration:   335
 C         0.905336         2.831713        -1.735856
 C         2.035140         1.970787        -1.223174
 C         3.000627         1.324983        -2.371753
 C         3.118580         0.241175        -1.394633
 O         3.890450        -0.861865        -1.730350
 C         1.709872         0.463899        -0.835269
 C         2.918163         0.671121         0.079756
 O         3.587247        -0.048290         1.122718
 C         2.763960         2.215004         0.109183
 H        -0.005733         3.005130        -1.064439
 H         1.222811         3.850579        -2.085177
 H         0.450602         2.399878        -2.668702
 H         2.146843         1.079820        -3.111705
 H         3.910045         1.854067        -2.961488
 H         4.101630        -1.289765        -0.911558
 H         0.762508        -0.077735        -0.779553
 H         2.851609        -0.367220         1.660626
 H         1.993885         2.566411         0.786914
 H         3.755645         2.847855        -0.065030
