19
Iteration:  1435
 C         0.873002         2.875850        -1.816793
 C         1.818228         1.886423        -1.219286
 C         3.158260         1.504390        -2.194470
 C         3.043057         0.206808        -1.388214
 O         3.712830        -1.021343        -1.577939
 C         1.741148         0.399118        -0.799946
 C         2.999377         0.703444         0.060482
 O         3.669331         0.038106         1.097801
 C         2.710200         2.193719        -0.040197
 H        -0.023854         3.108606        -1.229832
 H         1.493550         3.769534        -1.986800
 H         0.690156         2.438167        -2.837859
 H         2.858918         1.338571        -3.351102
 H         4.036180         2.205290        -1.907586
 H         4.317391        -0.907760        -2.295651
 H         0.843716        -0.276440        -0.711970
 H         4.004406        -0.813926         0.863852
 H         2.193711         2.717434         0.782178
 H         3.583912         2.841048        -0.231198
