19
Iteration:  3542
 C         0.899822         2.804867        -1.810733
 C         1.929902         1.935835        -1.313588
 C         3.048468         1.525795        -2.314532
 C         3.145524         0.240141        -1.442770
 O         3.735942        -1.037273        -1.667709
 C         1.801596         0.465181        -0.791092
 C         3.023724         0.705163         0.058712
 O         3.483149        -0.107330         1.103086
 C         2.754147         2.251615         0.094665
 H         0.085494         2.887785        -1.122218
 H         1.459815         3.743011        -1.828906
 H         0.517566         2.428838        -2.747448
 H         2.732308         1.335354        -3.347891
 H         3.960453         2.122449        -2.452835
 H         4.003268        -1.270854        -0.718677
 H         1.067597        -0.273776        -0.557420
 H         4.019631         0.573147         1.583831
 H         2.084021         2.545272         0.908701
 H         3.559280         2.997911         0.158779
