19
Iteration:   262charge 0 multiplicity 1
 C         0.905312         2.782865        -1.723742
 C         2.077241         1.979614        -1.304997
 C         3.048209         1.482017        -2.400105
 C         3.157810         0.285972        -1.389535
 O         3.767692        -0.949868        -1.577816
 C         1.679036         0.460890        -0.809698
 C         2.891649         0.643013         0.012967
 O         3.611397         0.042972         1.010581
 C         2.751080         2.079514         0.093346
 H         0.246059         2.929937        -0.882695
 H         1.133607         3.808679        -2.035770
 H         0.289934         2.308856        -2.507315
 H         2.579792         1.228224        -3.318177
 H         3.961080         1.917614        -2.725956
 H         4.457311        -1.063694        -0.952358
 H         0.629582        -0.138928        -0.910345
 H         3.156343        -0.124553         1.890121
 H         1.983169         2.366594         0.900507
 H         3.619214         2.641745         0.488253
