19
Iteration:  4971
 C         0.858092         2.943657        -1.791547
 C         1.920176         1.977637        -1.313198
 C         2.974530         1.413699        -2.337263
 C         3.134920         0.284009        -1.418237
 O         3.891384        -0.910364        -1.541544
 C         1.767985         0.301435        -0.837860
 C         3.026628         0.665184        -0.012621
 O         3.492963        -0.110473         1.112664
 C         2.745449         2.148416         0.049344
 H         0.056824         3.213526        -1.115058
 H         1.293027         3.880023        -2.176797
 H         0.296197         2.702745        -2.723920
 H         2.632484         1.116538        -3.320261
 H         3.825601         2.092214        -2.471483
 H         4.202405        -1.126436        -0.647922
 H         0.826873        -0.262378        -0.787419
 H         4.097459         0.403409         1.664056
 H         2.087442         2.480823         0.867608
 H         3.638054         2.942489         0.125021
