19
Iteration:   259
 C         0.906980         2.792609        -1.714701
 C         2.056058         2.002077        -1.287430
 C         3.056993         1.463257        -2.400553
 C         3.157766         0.274107        -1.408107
 O         3.769713        -0.956638        -1.590442
 C         1.679424         0.423119        -0.807959
 C         2.880638         0.653209         0.030026
 O         3.602205         0.057644         1.008091
 C         2.757120         2.090203         0.090338
 H         0.183587         2.942370        -0.904727
 H         1.136753         3.774040        -2.037155
 H         0.385358         2.261561        -2.509821
 H         2.566545         1.208836        -3.348045
 H         3.986555         2.006530        -2.770306
 H         4.493612        -1.092865        -0.904203
 H         0.810649        -0.020687        -0.854278
 H         3.053789        -0.163314         1.796123
 H         2.070584         2.313007         0.889648
 H         3.665494         2.701918         0.550421
